189
 energy: -357.991138611825 gnorm: 0.000946158463 xtb: 6.5.1 (b24c23e)
Fe          38.61916827062630       -0.09186087326043        0.01736473468905
C           35.23956112204022       -0.16297522376304        0.04096284479693
C           35.90088013640337       -0.35505031814895        1.23699966250025
C           35.23921454687152       -0.60038249184688        2.48305783120598
C           36.19445738260777       -0.57615835551227        3.44197660896377
C           37.44246162368483       -0.32456664921409        2.78002839069209
N           37.25039510982762       -0.21561028879540        1.42875812585701
C           38.64306451235976       -0.08653811536158        3.43926626641084
C           39.83252074636280        0.16792254841907        2.76890104504922
C           41.08992328349120        0.39319544605015        3.41852205242381
C           42.03371795602533        0.42179634539691        2.44720069760260
N           40.00689054347010        0.09810242333166        1.40815067780406
C           41.35388423955710        0.20669292213230        1.20771014887972
C           42.01195312221648       -0.00636419273775       -0.00461884730482
C           41.34007447657584       -0.21575444522126       -1.20990672277792
C           42.00059912024388       -0.43906974493945       -2.45814461093824
C           41.04404883632292       -0.39591755749598       -3.41720201369510
C           39.80061993426147       -0.14496735024971       -2.75104725539435
C           38.59137109557631        0.06518083043194       -3.40338701184267
C           38.58730389207798        0.13601134297747       -4.88178677201318
C           37.83608679644696       -0.76854762925222       -5.63703489363352
C           37.83338022668995       -0.69135233464554       -7.01755072516829
C           38.57761155994539        0.29408411290974       -7.66898184545866
C           38.53687173560353        0.34082792888473       -9.15037540891047
O           39.28378109654248        1.32292835335935       -9.67715607353725
O           37.90066924029283       -0.41705087047497       -9.83751225053900
C           39.33053712058069        1.19870095063262       -6.91969618567044
C           39.33640561173253        1.11611015308756       -5.53844103148002
C           37.38742020522803        0.20245498813723       -2.72202833302972
C           36.12045916511544        0.43314458508261       -3.35503092401846
C           35.17772093232273        0.34883691077402       -2.38704498235515
C           35.86935695778183        0.08845242977278       -1.16057593416638
N           37.22353807995641        0.05515621226724       -1.37013673910551
N           39.99263328742265       -0.08284491723815       -1.39396367163467
C           38.65575672747065       -0.12178925643711        4.92109795259533
C           38.39823762211169       -1.31729235483154        5.59651095608661
C           38.41190211697464       -1.35371756882080        6.97868279278388
C           38.67998095301313       -0.19514603277644        7.71005638224039
C           38.68362743654083       -0.28517149981732        9.19013928065891
O           38.96425218202246        0.87729818189547        9.79806379809244
O           38.45607475273638       -1.29247846155199        9.81056949746872
C           38.93527376690497        1.00130216954743        7.03949005838109
C           38.92477879642119        1.03497742746767        5.65569189633641
H           34.15616310510983       -0.20080029158435        0.04829790500451
H           34.17736569747697       -0.75381385609446        2.59178287063202
H           36.07466508488680       -0.69926213992374        4.50607474924415
H           41.22629889314576        0.49335423719659        4.48293134484398
H           43.09890807141547        0.55563940879665        2.54685176611930
H           43.06091562534485       -0.59896101860660       -2.57075548965900
H           41.15845207768972       -0.52905291975372       -4.48069372320416
H           37.26791801466951       -1.54274331949585       -5.13411785471579
H           37.25599212121628       -1.39261217814295       -7.60997950746813
H           39.20196082954736        1.28632671072737      -10.64401942803264
H           39.90822058954060        1.96624666743886       -7.42100070829281
H           39.91135028439530        1.82677120377758       -4.95545343274457
H           35.98268411588682        0.63183360640097       -4.40546217070295
H           34.10791573607440        0.45146207193695       -2.47585946930320
H           38.20230998215482       -2.22012331821855        5.02940401613935
H           38.21771426833538       -2.27892517718683        7.51007997766587
H           38.94581426795428        0.73409833555296       10.75829538885088
H           39.14007775315845        1.90349114969517        7.60362371966662
H           39.11122539827164        1.96707654576395        5.13441343992302
Fe          60.24780472704033       -0.07639583445281       -0.06344320648476
C           63.62561454460280       -0.14807684843465       -0.10118553576992
C           62.96187951202732       -0.20349006395987       -1.31023895840060
C           63.61920994967671       -0.30798963208934       -2.57822336242642
C           62.66189637617764       -0.16772140678801       -3.52528935437652
C           61.41724451969475        0.01467888809178       -2.83504430026051
N           61.61279734022331       -0.03649665613949       -1.48117924490105
C           60.21771511107656        0.34338780337425       -3.45721834299827
C           59.03255750919220        0.52899530500774       -2.75740194437964
C           57.77656023755863        0.84919764295879       -3.36860911510051
C           56.83456599127479        0.76009002635627       -2.39885592396355
N           58.85892575271150        0.28624102342248       -1.41633377532999
C           57.51422739337962        0.37900873325668       -1.20001658412584
C           56.85590663145436        0.00228274557935       -0.02639967318410
C           57.53128774159969       -0.37107151014078        1.13854482862204
C           56.87511347271073       -0.76284313148340        2.34681357943278
C           57.83264543909814       -0.83446255597501        3.30354580429114
C           59.07229377795301       -0.48583301026501        2.67549115098375
C           60.27980072221946       -0.34109547665452        3.34854144481064
C           60.28436107447492       -0.44710335904626        4.82456812809403
C           61.05317175273357       -1.42073944477189        5.46797821899256
C           61.05581374193336       -1.50782010869921        6.84790941201526
C           60.29377392187846       -0.62091961347090        7.61075910854379
C           60.33524369160610       -0.74978279344892        9.08748005430838
O           59.56817334532746        0.14640837231024        9.72598507443174
O           60.98904607811553       -1.56985045331874        9.68016234088821
C           59.52307000641360        0.35182454297819        6.97332664228792
C           59.51739479256931        0.43373791189458        5.59203028218279
C           61.48147467388389       -0.10901753673194        2.68796570527569
C           62.74773191642777        0.05750830098880        3.34211710106229
C           63.68963798837408        0.08992241557091        2.36997629389839
C           62.99779338708194       -0.03378344164592        1.12237992897625
N           61.64433413593957       -0.09888562393423        1.32829814362269
N           58.87710243391795       -0.25279993148001        1.33741503965162
C           60.20066169388846        0.48316182446788       -4.93275577661327
C           60.43709375850571       -0.62957250299729       -5.74372083925883
C           60.41516601689112       -0.50559912618310       -7.12065609291974
C           60.16090333863679        0.73366800438602       -7.71108891179616
C           60.14726702634062        0.81529534499185       -9.19162715830901
O           59.88614677635738        2.04513045063943       -9.65924497195690
O           60.34885105764136       -0.11842934341907       -9.92569068771792
C           59.92808670825620        1.84811332090791       -6.90479786972820
C           59.94600358626450        1.72114244393721       -5.52645951382896
H           64.70901204887176       -0.18472164426164       -0.11470536055512
H           64.67980808802643       -0.45428744967740       -2.70710720019968
H           62.77841770067048       -0.16812066259261       -4.59686317089154
H           57.63930331854157        1.08830042895532       -4.41052266029004
H           55.77050307415705        0.91536681287621       -2.47772345938305
H           55.81663376933208       -0.94655746095762        2.43859629542428
H           57.72107807279735       -1.10573179659850        4.34074495812789
H           61.63485527518992       -2.11931284791008        4.87742629455740
H           61.64682393892480       -2.26351120564598        7.35362398249609
H           59.65175156481425       -0.00249152438331       10.68187905695607
H           58.93143794550407        1.04333582976618        7.56147638873247
H           58.92877661326208        1.19776810199081        5.09682132497035
H           62.88582665506519        0.13679743512324        4.40818070706340
H           64.75887748975715        0.18876222874933        2.46918831985232
H           60.62252754406348       -1.59463797232030       -5.28615119100510
H           60.59232297311975       -1.36579897892989       -7.75687137674896
H           59.89568655239810        2.01344536859794      -10.62970697015430
H           59.73426239463675        2.81245580679426       -7.35933996347068
H           59.77633646054475        2.58913809331999       -4.89951719153604
C           43.42416533436572       -0.00676488472446       -0.01280367800900
C           44.63969931806735       -0.00662087024303       -0.01828812388159
C           54.23058140768025       -0.00063403401715        0.00030877645757
C           55.44695251244475        0.00092118395781       -0.01682894237829
Fe          49.43669058231795       -0.00326654343875       -0.05768851636826
C           46.05064251852664       -0.00480537846647       -0.01679445895548
C           46.72413860572908       -1.19934459328651       -0.28768934695726
C           46.08217886500603       -2.43456916434190       -0.61215146368991
C           47.03707112936240       -3.39636717388575       -0.55463644833961
C           48.25848679819033       -2.74567258191739       -0.18427337839316
N           48.06098736263392       -1.39230602933508       -0.08711311694918
C           49.43944890210825       -3.39864012473269        0.15745235578801
C           50.61776916278414       -2.71388333918022        0.43667402475867
C           51.84310273967663       -3.32670174550491        0.85598604385085
C           52.79575665935431       -2.36202405747115        0.82044341662418
N           50.80899747081138       -1.37006239350046        0.23243959615377
C           52.14872069392958       -1.16166956088266        0.39144695069016
C           52.82266231181215        0.00131748771287        0.00524376601697
C           52.15112583397563        1.16613956249609       -0.38147851856705
C           52.79730251397482        2.36588719719204       -0.81306443343394
C           51.84363244128727        3.32983849504533       -0.85137998230980
C           50.61805160271352        2.71663015653818       -0.43385083087468
C           49.43315004327153        3.39714810664918       -0.17216851517622
C           49.42803858079298        4.87354254218792       -0.25297200219482
C           50.30183807179156        5.62837553865540        0.53483169674286
C           50.29302823622986        7.00883771859526        0.45996431994059
C           49.41584702940553        7.66094310565023       -0.40866516613448
C           49.44659878714507        9.14299393318290       -0.45585643995480
O           48.56376332832129        9.67063062361618       -1.31671986056605
O           50.18375977734394        9.82870827657776        0.20557182898227
C           48.54427638055238        6.91230358925867       -1.20012962883619
C           48.54975102431561        5.53096185607881       -1.11886181245385
C           48.25119107641083        2.74080822405703        0.15879083337806
C           47.02234969242442        3.39131893096103        0.50475285981496
C           46.07024237788340        2.42706841177901        0.55875000487393
C           46.72053732909907        1.19065467492006        0.25519878759879
N           48.06249312188215        1.38402987347838        0.08643714023307
N           50.81396623740279        1.37772222072013       -0.20859438164464
C           49.43931322106065       -4.87555007775060        0.22626991896381
C           48.54856231367435       -5.54198931376265        1.07281952928955
C           48.54973886727339       -6.92283528590361        1.13930887197532
C           49.43615225587548       -7.66417694171202        0.35581887894516
C           49.39536679845836       -9.14332824772720        0.45890804465284
O           50.28171122029077       -9.76094525019789       -0.33564482443332
O           48.64751062898829       -9.75337873716813        1.17958588125103
C           50.32504622842801       -7.00435841381915       -0.49327963485122
C           50.32718892322897       -5.62181570689822       -0.55348212557546
H           45.03449981921450       -2.53912289487935       -0.84438759396064
H           46.93270606628123       -4.45187092131617       -0.74668345881818
H           51.95209425654557       -4.36149581541312        1.13725496324447
H           53.84591525606734       -2.44414456440116        1.05069015935588
H           53.84718191075212        2.44871379025056       -1.04431338678904
H           51.95133901849545        4.36342510718872       -1.13770987139613
H           50.97393737424245        5.12457007677018        1.22011086114442
H           50.96364137376821        7.60069543293853        1.07322352739397
H           48.64621588695914       10.63775720067475       -1.28817705728083
H           47.86479497982202        7.41411895196872       -1.87881354122333
H           47.88205674210084        4.94898576813434       -1.74408231366855
H           46.91103475712132        4.44884272942087        0.68103207765544
H           45.01834129959431        2.53036316094057        0.77172029465468
H           47.86894391995653       -4.96760115685373        1.69197554129594
H           47.86562301690239       -7.44572011122447        1.79860658529931
H           50.19190433511115      -10.71974874421159       -0.21074006811302
H           51.01185666940852       -7.57605572111726       -1.10613811644027
H           51.00787462780074       -5.10998025452775       -1.22437828492597
