346
 energy: -684.033352417183 gnorm: 0.000830046270 xtb: 6.5.1 (b24c23e)
C           57.27456340526144       -0.01519986165924        0.12573687061018
C           57.86874599819539       -1.22805386230314       -0.19702911232791
C           57.20318627425964       -2.45909133048126       -0.45758201525629
C           58.15202812926528       -3.39716290009402       -0.75030236132952
C           59.42826630514629       -2.76700662141365       -0.68586733461153
N           59.20698009985918       -1.46478237051239       -0.33982788863977
C           60.68311096112283       -3.34825169004985       -0.89983804063930
C           60.69276433221429       -4.77776498509555       -1.29385638007025
C           60.06886792032459       -5.18611759388016       -2.47568246482676
C           60.07294971570218       -6.51986173417866       -2.84908686333069
C           60.70194827714180       -7.43917835385830       -2.02516105516832
S           60.71341237677171       -9.12832366243361       -2.49438598791306
O           60.56075102176362       -9.26889581745490       -3.91305904148675
O           59.31529535717592       -9.57658550905398       -1.79879455768245
O           61.78659603211679       -9.82386732865344       -1.84871328835914
C           61.33106319133933       -7.06504235923968       -0.84891902304005
C           61.32446804595685       -5.72791651932441       -0.48741818577567
C           61.90826137439156       -2.68876720274310       -0.76969673859585
C           63.19521434212074       -3.30287368046692       -1.04568480211059
C           64.12815891492467       -2.35975084370844       -0.80198273820043
N           62.07968320357529       -1.39336465457622       -0.39081398311533
C           63.40973352752551       -1.16859635541643       -0.39124999052023
C           64.06155414866089        0.03272012737574       -0.05032855913897
C           63.44246668633001        1.24641650951099        0.30117944225915
C           64.10354237454546        2.45316925264067        0.65375900609267
C           63.14922740848191        3.39790599548988        0.90988371959820
C           61.87431950356891        2.79707505692936        0.71488466035348
N           62.10337701119178        1.49571296498925        0.35603478571213
C           60.61917651224571        3.39086902071981        0.88628654741057
C           60.60659166197738        4.82797791624567        1.24939811449517
C           61.16729474306604        5.77612499979341        0.38941469176205
C           61.15257620367801        7.12121614488572        0.71918221031512
C           60.57782088651867        7.50535157555220        1.91992654279738
S           60.54819680660037        9.20746932883204        2.33844006126341
O           60.62055185756005       10.02573180534356        1.16344934141767
O           61.98417242192857        9.28933588533089        3.09408163296841
O           59.51672148677113        9.47574248268271        3.29616925444262
C           60.01428667737379        6.58947524106461        2.79344930765134
C           60.03018917418849        5.24741268015888        2.45122895404417
C           59.39306680865604        2.73299666969259        0.74174769632168
C           58.09514733492009        3.37610923971066        0.88159008235508
C           57.17038896681944        2.41785188413493        0.67411997195615
C           57.90157772873954        1.19427318433716        0.39363656400152
N           59.23707311386723        1.42384733112618        0.43493652556240
H           56.19002368286824       -0.02115538711882        0.16515930830963
H           56.13451873063700       -2.59657754871520       -0.41747269810097
H           57.98911541886854       -4.43734268447389       -0.98131562470999
H           59.93970246628241       -0.77603471550653       -0.20591665665940
H           59.59440950325197       -4.44935229734368       -3.11343256772664
H           59.60239513904484       -6.84519785132798       -3.76840444213735
H           59.07324034365055      -10.46674029427585       -2.08207925857818
H           61.81785769385011       -7.80937714797242       -0.23140899127556
H           61.80018590459375       -5.41607620335746        0.43499265684130
H           63.34289950078718       -4.31299652851768       -1.39158319262490
H           65.19982817135546       -2.43382748211776       -0.89388736489262
H           65.17365351503213        2.57194706239599        0.70683513186164
H           63.31066733345323        4.41791075542489        1.21826061729088
H           61.37185441200948        0.81803278650388        0.16818999974225
H           61.59913519730757        5.45671885953295       -0.55194078631708
H           61.57254016584889        7.86525065130846        0.05402958665279
H           62.18988184607664       10.20413462996159        3.32207986661762
H           59.56960885770675        6.92511753143232        3.72184979276544
H           59.60531915012898        4.51357663362393        3.12604536622485
H           57.93804103022399        4.42091282636935        1.09575561470002
H           56.09518855640292        2.50149126863275        0.69188141259648
C          128.12915593146590        0.01966001312293        0.12569968201481
C          127.52872362823291        1.21519495457083        0.49780143989024
C          128.18815039694698        2.40246890395664        0.92414726389695
C          127.23388642524837        3.34669427030796        1.17698565369358
C          125.96037414676758        2.76895023241436        0.90450900946269
N          126.18863583727462        1.48207836492102        0.50911610462280
C          124.70184211323317        3.36728839496029        1.03216162895091
C          124.68245689014442        4.78872157843079        1.45383715795079
C          125.29935234783413        5.76568876603511        0.66797262104433
C          125.28605032113319        7.09454246198106        1.05834070096902
C          124.65501347065448        7.43299681326408        2.24446416806653
S          124.63351582805106        9.11363059271437        2.74308120642260
O          124.77819136715026        9.98714834697608        1.61533538900752
O          126.03386680206019        9.13436506819346        3.56688396996522
O          123.56083473289576        9.35297831142849        3.66197460586409
C          124.03209820738432        6.48802344416950        3.04343552936622
C          124.04771775063858        5.16275258604613        2.64108703336012
C          123.48059923486950        2.73040161828133        0.79619295103042
C          122.19022305261861        3.39157678120868        0.88058247030555
C          121.26238160592206        2.45517129725915        0.59520706536262
N          123.31630383637325        1.42692683360510        0.44250719405877
C          121.98729933544011        1.22814243250894        0.32563384439182
C          121.34102353499820        0.01878971383129        0.00206314988989
C          121.96608580293223       -1.19823052879985       -0.32632213983900
C          121.31202291746835       -2.41806594562032       -0.64519208952851
C          122.27144619060788       -3.34930497680125       -0.93039589330237
C          123.54244878332071       -2.72322132647483       -0.79975128300560
N          123.30624440017324       -1.42799056287914       -0.42394646818626
C          124.80094790304690       -3.30637427400141       -0.98285481986077
C          124.82252655279014       -4.71876949099699       -1.43211110873193
C          124.24836500660267       -5.07659986956394       -2.65490533227833
C          124.27599248764238       -6.39210387721337       -3.08730208233819
C          124.87696136588437       -7.34485240085089       -2.28060325921262
S          124.92604784113914       -9.00928748017788       -2.82870276222206
O          124.83476925382453       -9.08050462755536       -4.25773020041677
O          123.50738707992872       -9.50315357344814       -2.21056097956840
O          125.97910932376281       -9.72787713236188       -2.17436660128835
C          125.45280173600203       -7.02185237820499       -1.06256650670885
C          125.42387437395102       -5.70234508679014       -0.64240937945186
C          126.02381789101064       -2.65862694976554       -0.77705526884991
C          127.32463874599040       -3.26639495076639       -1.01436454170254
C          128.24480710136362       -2.33437722537186       -0.69638997779958
C          127.50776993347689       -1.15389028711342       -0.27974747240300
N          126.17334317098754       -1.38297962282276       -0.34963377259596
H          129.21407033083216        0.01245427484056        0.15267402100946
H          129.25665406866005        2.50558928638389        1.02531713015072
H          127.39159976917726        4.35280151398451        1.53020487754415
H          125.45921020271257        0.82154028938329        0.26244737270625
H          125.77552337946098        5.48236298492041       -0.26349308706261
H          125.75109844728050        7.86097321179647        0.45111342661649
H          126.27839253598712       10.04243201724717        3.78324532874369
H          123.54319388198884        6.78859937675671        3.96155636364092
H          123.57679825992933        4.40610492258061        3.25763388635149
H          122.03715119611869        4.43302618332582        1.11241034949137
H          120.19024903326567        2.56112398651571        0.55445606961464
H          120.24292515474713       -2.55632874851481       -0.64926459107450
H          122.11622665179162       -4.38204025404487       -1.19677409448147
H          124.03388612409772       -0.74472522187289       -0.24137509253653
H          123.79646542533661       -4.31387732495123       -3.27835102791399
H          123.84646803893976       -6.67745529512628       -4.03939644082875
H          123.31920643952165      -10.40863290073819       -2.48599910307894
H          125.91761715050711       -7.79133656727952       -0.45909726856064
H          125.85878152742879       -5.43058778556781        0.31227361806703
H          127.48670143824636       -4.26525690203933       -1.38606585451162
H          129.32026070053175       -2.40474957641427       -0.73906503306606
C           69.26541998840776        0.06393223011514       -0.04292776296795
C           68.03775194366153        0.05212234762404       -0.05426515750789
C           66.69234119443568        0.04460607929832       -0.05962948935780
C           65.46905090645005        0.03591782004094       -0.06048532035709
C           70.61056742245682        0.07678684115843       -0.02936080180950
C           71.83386236339679        0.08942788632359       -0.01082169709014
C           85.29949824576231        0.08483109910747        0.05561103875500
C           84.07073941389902        0.09046816518019        0.05544999336061
C           82.72742091661934        0.09937409161998        0.05729977594909
C           81.50309622909575        0.11034367855578        0.05493064828382
C           86.64279903188294        0.07946351592201        0.05341145599312
C           87.86725244946454        0.07622623298585        0.05497097640383
C          101.33289234704645        0.07848625974282        0.07108054331764
C          100.10408364824109        0.07987580499789        0.07104282739981
C           98.76079172517781        0.08299361484404        0.07089920696243
C           97.53638031916175        0.08788647239252        0.07004058678042
C          102.67619136277156        0.08063022013672        0.07202812497224
C          103.90057691237610        0.08308468565619        0.07462059980673
C          117.36512766738711        0.01729251673958        0.02009365089905
C          116.13743359724839        0.02923264653127        0.03418690377010
C          114.79246295345916        0.04292565003548        0.04967417663481
C          113.56912324157416        0.06022866009500        0.06321413253760
C          118.71035848628760        0.01116545846024        0.00792653679517
C          119.93370428671966        0.01589294914161        0.00088881133563
C           73.24020794280258        0.10427672111262        0.00565678237365
C           73.87029518206587        0.79806714228866       -1.04436427385554
C           73.22532593960783        1.45963740094851       -2.12160027243757
C           74.19207776206238        2.01883053688260       -2.91129617598242
C           75.45643992747611        1.72039889958481       -2.33332220216865
N           75.21161518603159        0.97366875682928       -1.21281228104621
C           76.71832452155684        2.08756981599862       -2.81652745998177
C           76.73510795918436        2.92916991954019       -4.03834204321595
C           77.33577853767208        2.45968339674063       -5.20907812099517
C           77.35317764041378        3.24098778748725       -6.35273709598559
C           76.76654170300860        4.49530889257169       -6.31024278551066
S           76.79628376749700        5.49558397229530       -7.74985066117633
O           76.68201620442302        6.88411677309931       -7.41208517524143
O           75.38311830273300        5.02125810595439       -8.39519933810351
O           77.85470557837654        5.08916527374040       -8.62574066854695
C           76.16808895251199        4.99059659286813       -5.16306441352499
C           76.15230096136962        4.19894868521165       -4.02658059219772
C           77.94265409866073        1.73011001560057       -2.24955799681259
C           79.23007134954923        2.17512660913462       -2.75337289567749
C           80.16473184826144        1.62224476281134       -1.95334826382136
N           78.11590233006949        0.94234987814861       -1.15289348692792
C           79.44672037670949        0.85166692895875       -0.95702906793035
C           80.09885241550855        0.11964512965439        0.05576602535030
C           79.46805868090301       -0.60968410897082        1.08222721033984
C           80.11367163522468       -1.36187758808849        2.09765296195999
C           79.14682543658317       -1.89853249465636        2.90281407819713
C           77.88165902194287       -1.48253138215649        2.40480981597466
N           78.12661555158105       -0.71379238852126        1.29886991633700
C           76.61953224088266       -1.80775558066960        2.91602192921996
C           76.60059719494726       -2.62862001056215        4.15174102602807
C           76.01090818211735       -3.89521500216363        4.14817411295871
C           75.99015082629818       -4.66459459029783        5.29982642532777
C           76.56021229727139       -4.15082648250121        6.45326354188613
S           76.54417501305115       -5.12108411120321        7.91353598069686
O           76.40413115790335       -6.51166047499662        7.59726379531494
O           75.13889081344227       -4.59195257021191        8.53121503039816
O           77.59700182738892       -4.72431520285768        8.80200162493075
C           77.15488812545688       -2.90001743102545        6.48743069339122
C           77.17425813363252       -2.14119921195968        5.32881896920636
C           75.39477567025899       -1.42569682505282        2.36501608748339
C           74.10615656337140       -1.74404489209335        2.95483313025964
C           73.17170204969300       -1.21445121702622        2.13908338819100
C           73.89058625071803       -0.56375811305120        1.06124223938219
N           75.22249978385796       -0.69862544839055        1.22792308485551
H           72.15799871399918        1.49397491675723       -2.26860942413859
H           74.04457102658408        2.57967979322411       -3.81968037170925
H           75.93078118359365        0.60080144680686       -0.60204515046925
H           77.77960135534019        1.47115850895556       -5.22383815242348
H           77.81681155137929        2.88745852553660       -7.26509806732932
H           75.16780720678003        5.56412688761809       -9.16342910426359
H           75.73005811387628        5.98082079915230       -5.16157453889469
H           75.70103624366079        4.57316138027379       -3.11501012930031
H           79.37695098170980        2.83163765387057       -3.59549153210259
H           81.23733270511417        1.71825532053108       -2.00508155953374
H           81.18153975488630       -1.47616924954292        2.19006654502226
H           79.29485755222463       -2.53517173107947        3.75968154911038
H           77.40728475115320       -0.28933010216023        0.72299000652990
H           75.58102541671373       -4.28307265937295        3.23213019817702
H           75.54471470393048       -5.65144796303533        5.30567570601651
H           74.98809567542108       -4.97894082020587        9.40222159999048
H           77.59600386351704       -2.53172457588152        7.40512990249556
H           77.62364914031454       -1.15499738623160        5.33771455942080
H           73.95804235193550       -2.28684004873302        3.87417072725708
H           72.09852575879803       -1.23920077352871        2.23931384445402
C           89.27134900362790        0.07756072884318        0.05606546126554
C           89.89766218836164        0.75799565989607       -1.00632028033999
C           89.24783831572843        1.41032310652149       -2.08588935836609
C           90.21136880706592        1.95855697972941       -2.88750117079194
C           91.47814907669225        1.66352724215976       -2.31367692075757
N           91.23800517372051        0.92777670610025       -1.18449902438840
C           92.73797849212808        2.02679452637544       -2.80509932526111
C           92.75048624085454        2.85708553554680       -4.03472367520014
C           93.34870998636775        2.37674035989087       -5.20226974202289
C           93.36378536237444        3.14739124400567       -6.35318869754798
C           92.77753099246679        4.40212872316386       -6.32106286319269
S           92.80503256312691        5.38964619095028       -7.76981349037361
O           92.71635683506142        6.78301957079120       -7.44399714903560
O           91.37566533226375        4.93618833501059       -8.39338705652360
O           93.84700899715892        4.95721585626738       -8.65251934580199
C           92.18146549689968        4.90801747165246       -5.17725397896067
C           92.16775370689356        4.12693218529404       -4.03343991842782
C           93.96486002313802        1.67728124354199       -2.23869987918851
C           95.24943025306847        2.12324995706722       -2.74870143297245
C           96.18794071934255        1.58076817483955       -1.94602330744762
N           94.14350359736838        0.89850369491897       -1.13639643174819
C           95.47510380089412        0.81443893769683       -0.94287067194665
C           96.13229107732843        0.09032966483840        0.07233856804581
C           95.50622392441312       -0.63849099184119        1.10227786642927
C           96.15647068873578       -1.38807576224785        2.11636160343295
C           95.19300741507456       -1.92722812049235        2.92418961068882
C           93.92574401980751       -1.51421804793554        2.42973185369869
N           94.16560584335031       -0.74564338698336        1.32270946204111
C           92.66552163032591       -1.83987785285220        2.94647081804159
C           92.65359463228337       -2.66332056108667        4.18066723100234
C           92.06718792837951       -3.93137162626953        4.17587851709250
C           92.05788517978249       -4.70615255298165        5.32407829224302
C           92.63548193196775       -4.19602283037848        6.47536403801842
S           92.63816303682411       -5.17537458310708        7.92968308035374
O           92.50369656184458       -6.56487652142715        7.60607325857332
O           91.23488162517310       -4.65988577692302        8.56238743610958
O           93.69714071377702       -4.77743680954993        8.81004311920515
C           93.22499234561084       -2.94280686023909        6.51120298538482
C           93.23309648500558       -2.17862228714910        5.35596812144554
C           91.43860289714242       -1.45613327897200        2.40315049336034
C           90.15341636350827       -1.76920693311081        3.00275865715005
C           89.21489794191561       -1.23453186306685        2.19487328590421
C           89.92820925499601       -0.58889172126869        1.11031171514485
N           91.25994341187793       -0.72898705308697        1.26605119083748
H           88.17972717133181        1.44575189042859       -2.22674475994936
H           90.05990987467344        2.51035051131383       -3.80076198519742
H           91.95978073696784        0.56012446670851       -0.57364720683168
H           93.79275146604316        1.38822399271366       -5.20860393872107
H           93.82553114341196        2.78537020959002       -7.26315966263253
H           91.12833482141117        5.51996769997748       -9.12091214660732
H           91.74383569327084        5.89840552679046       -5.18385265318984
H           91.71856582024053        4.50974018883095       -3.12442701232877
H           95.39189250191087        2.77375075208871       -3.59621293162177
H           97.26002781345963        1.68079308130183       -2.00058627462748
H           97.22484637717179       -1.49959235361486        2.20613961153032
H           95.34517829353955       -2.56313852327147        3.78084719010280
H           93.44365879937932       -0.32311236998912        0.74867614993948
H           91.63162629776691       -4.31636894092067        3.26131397010518
H           91.61618337129573       -5.69470127668285        5.32867587593760
H           91.07914810463542       -5.07560633320865        9.41923518940414
H           93.67159472775528       -2.57710888314621        7.42727450466455
H           93.67898361485712       -1.19083454165413        5.36600742078857
H           90.01059572985278       -2.31162651645009        3.92316372988590
H           88.14243275563099       -1.25451157573956        2.30346525891562
C          105.30477936673641        0.08842455816838        0.07724257845920
C          105.93047871373658        0.77279779026920       -0.98272974626155
C          105.28044826970942        1.42835536625322       -2.06045108438898
C          106.24354612829917        1.98243036933378       -2.85830595845441
C          107.51058166710612        1.68750607419617       -2.28443926662587
N          107.27063882091608        0.94609304478293       -1.15884392206879
C          108.76994709829071        2.05580541650485       -2.77228467754796
C          108.78374499982706        2.89280213108913       -3.99719184510498
C          109.38796625051725        2.42020521686203       -5.16490697665493
C          109.40552960357159        3.19678816843109       -6.31173174999393
C          108.81563912479676        4.44973022098843       -6.27550252026297
S          108.84762176138085        5.44506348512665       -7.71888876476710
O          108.75050651523965        6.83623949686321       -7.38640768746835
O          107.42428206395856        4.98869169114308       -8.35428116126201
O          109.89702691216900        5.02164603665267       -8.59710506146852
C          108.21331702299017        4.94788197103388       -5.13158703042615
C          108.19710982603831        4.16082498710413       -3.99185204745362
C          109.99694312825703        1.70235014279977       -2.20721432958366
C          111.28178859262006        2.15363428200466       -2.71234169103965
C          112.22025625806056        1.59910800899347       -1.91805567643285
N          110.17480861462792        0.91061729622820       -1.11511073800107
C          111.50734843528295        0.81998274092453       -0.92475715625017
C          112.16289288909586        0.07497126908645        0.07463023655802
C          111.53765652732766       -0.66213595259482        1.09778247148673
C          112.18768893740379       -1.42655614093853        2.10127771638211
C          111.22492841254625       -1.96114990196337        2.91262852542014
C          109.95811175854638       -1.53111768942018        2.43104112784191
N          110.19734342919604       -0.75780892076992        1.32757592929013
C          108.69867372315929       -1.84682563457708        2.95583166614510
C          108.68877324164431       -2.67246354886885        4.18852692876777
C          108.09133180011644       -3.93538806248380        4.18690384974161
C          108.08657398339530       -4.71250073900269        5.33351856605182
C          108.67963578994377       -4.20984654633775        6.48026989598467
S          108.68958000871957       -5.19344696060659        7.93171505078205
O          108.54541166090907       -6.58081167296342        7.60351755727929
O          107.29520332316712       -4.67197176172690        8.57938207222153
O          109.75756818523226       -4.80445767517670        8.80534677627153
C          109.27961437038583       -2.96157202149053        6.51316362560893
C          109.28319672635921       -2.19511038196135        5.35940717739397
C          107.47186951964288       -1.45261719091338        2.41974812841285
C          106.18702087725467       -1.75933976767640        3.02342178918651
C          105.24861419444123       -1.22180135974648        2.21732339552278
C          105.96181544640875       -0.57894175184075        1.13087284463157
N          107.29329304168904       -0.72420370870972        1.28350122028677
H          104.21240424383195        1.46219210701854       -2.20226960299759
H          106.09193950931643        2.53798346393392       -3.76926886785810
H          107.99260854302061        0.57663134315477       -0.54933191657247
H          109.83490232453015        1.43301431325332       -5.17454704245291
H          109.87209560325857        2.84085984188550       -7.22164434023761
H          107.17918155609233        5.57619767555725       -9.07955853711690
H          107.77299744925737        5.93708836623152       -5.13473791547577
H          107.74327921164185        4.53774400615616       -3.08268687813401
H          111.42447664263861        2.81543602555392       -3.55101125917922
H          113.29240114718117        1.69843912794973       -1.97236201504429
H          113.25549540398367       -1.54979121350302        2.18221966727409
H          111.37699515781372       -2.60477097971879        3.76354280510801
H          109.47546601838572       -0.32319244815185        0.76255494549623
H          107.64401463392002       -4.31485995952380        3.27569988940692
H          107.63692315681156       -5.69744820493975        5.34036996890264
H          107.16281210125739       -5.06319623016664        9.45152416721157
H          109.73808230193328       -2.60146219391979        7.42558797106214
H          109.73776591203101       -1.21127500332445        5.36715714839158
H          106.04436541477496       -2.30041047886767        3.94465713143079
H          104.17634565040753       -1.23714094382188        2.32870032569188
