264
 energy: -503.399410075222 gnorm: 0.000478318778 xtb: 6.5.1 (b24c23e)
Fe          50.17403528871851       -0.09326814782671       -0.00256925729885
C           46.78784586983473       -0.15864987702339        0.02495092196647
C           47.44714285350910       -0.31617919611027        1.22650603984836
C           46.77896132028509       -0.52074023717110        2.47641902741503
C           47.73473811404673       -0.50573418498486        3.43466501587653
C           48.98840324720576       -0.30118572577417        2.76765882913572
N           48.79942721457014       -0.20051216506979        1.41538312493928
C           50.19878227885913       -0.11884705433657        3.42585447131596
C           51.39794430815289        0.08530081617294        2.75768886163155
C           52.66214228073409        0.23643266884151        3.41490513912773
C           53.60680365799362        0.26174474771645        2.44470694932055
N           51.57026750064686        0.04988794025042        1.39443113740058
C           52.91913180129981        0.12246648066747        1.19925976066335
C           53.57708111084742       -0.00915912743008       -0.02742019032903
C           52.90071351170538       -0.13301505338559       -1.24484396617840
C           53.56624033519129       -0.27888286002321       -2.50127420189992
C           52.60689264594554       -0.23010140533132       -3.45670084678204
C           51.35733299317011       -0.05220341558034       -2.77906952323290
C           50.13930915933753        0.10837128821863       -3.42682134378161
C           50.13194252186973        0.18806524972826       -4.90569930040590
C           49.45274083948707       -0.76672169404400       -5.66685421500648
C           49.45225934151044       -0.68626952485726       -7.04728740994163
C           50.12594375237225        0.35279878598425       -7.69207246234627
C           50.09238202878419        0.39928342220309       -9.17357116663474
O           50.77436143017865        1.43090220219124       -9.69384326249614
O           49.51553827136201       -0.39982437022800       -9.86643824667986
C           50.80483545730242        1.30915405595653       -6.93634943915594
C           50.80911877790732        1.22336133597208       -5.55523629901566
C           48.93012027280297        0.18614412245370       -2.74616011743366
C           47.65741083928094        0.36301958034630       -3.38445128469097
C           46.71735580576766        0.27123143905322       -2.41492612935453
C           47.41641169326374        0.05737311559514       -1.18370590876350
N           48.77103205514658        0.05103560988164       -1.39251779831768
N           51.55089055174700       -0.02830155552362       -1.41970486639231
C           50.21320435819449       -0.16251415577872        4.90799544699284
C           49.92106665857428       -1.35254487595504        5.57859969389582
C           49.94185153433729       -1.39668058639909        6.96051278282653
C           50.24947675157702       -0.25072848714368        7.69621845576331
C           50.25707621771133       -0.34810584165009        9.17573194022829
O           50.56374715048644        0.80530304585415        9.78838519864578
O           50.01470351972746       -1.35441137591484        9.79217728733342
C           50.53848514927708        0.94065953518618        7.03029396306986
C           50.52263803131914        0.98140202913879        5.64676476882139
H           45.70440312376658       -0.19642470830995        0.03278730452410
H           45.71343919520402       -0.64465484871879        2.58694847972270
H           47.61346774746439       -0.60867784004191        4.50074117009563
H           52.80043458067005        0.29424440117998        4.48216746806926
H           54.67612579682263        0.35183200398563        2.54788678459968
H           54.63083395245523       -0.39942140439282       -2.62105764822490
H           52.72340821660961       -0.31644146670253       -4.52469605540493
H           48.93969181679908       -1.58147012015168       -5.16879094449304
H           48.93186915997762       -1.42675152330154       -7.64476483857365
H           50.70250554773804        1.39013538680512      -10.66130315810016
H           51.32708641950337        2.11860677302395       -7.43248652580925
H           51.32773309866982        1.97206101515458       -4.96712008011616
H           47.51485730559369        0.53449868659875       -4.43900931485864
H           45.64499169886450        0.34067675671458       -2.50496383290512
H           49.69284523769963       -2.24551515327137        5.00799186000082
H           49.72214907692052       -2.31813959466521        7.48846079416341
H           50.54688591757289        0.65727475998675       10.74790726365242
H           50.77479928204063        1.83295684180524        7.59784169470832
H           50.73806934360596        1.90908908496335        5.12880715443418
Fe          98.11553095092727       -0.07091188339910       -0.05260852158058
C          101.50085503210546       -0.14242855664721       -0.09188051269529
C          100.83967702580928       -0.16983043374333       -1.30251525793612
C          101.50461993900910       -0.23890413121073       -2.56886756825272
C          100.54714370316574       -0.11443184658071       -3.51755224245190
C           99.29578650515538        0.02253490809463       -2.82925801035571
N           99.48735584567638       -0.03142315227531       -1.47492325160012
C           98.08669966636691        0.29356783813023       -3.45942841973426
C           96.89091499284814        0.43488252100879       -2.76957230739189
C           95.62849224767254        0.68418241264617       -3.39985766942181
C           94.68487046431427        0.60251122516607       -2.43155616483852
N           96.71830480450565        0.23328418408597       -1.42077889970272
C           95.37124760276569        0.29915465239948       -1.21485102169919
C           94.71266566448651        0.01036143896872       -0.01482209454293
C           95.39031829198211       -0.27654769665672        1.17491250740949
C           94.72653354762481       -0.58425586533605        2.40282257499145
C           95.68677267598795       -0.65453449280845        3.35616119017916
C           96.93502600153317       -0.38658345936100        2.70615919390197
C           98.15235381580479       -0.29517721846036        3.36812104164834
C           98.16241804640718       -0.39298926100507        4.84575926093373
C           98.85731501896014       -1.42224209747561        5.48621573064810
C           98.86345372001767       -1.50580971975241        6.86642570187587
C           98.17992735049852       -0.55921672403905        7.63193390008573
C           98.22174289586398       -0.68708285874179        9.10854288638641
O           97.53059181959084        0.26733219479582        9.74966236477992
O           98.81260948130469       -1.55477835511226        9.69958958556288
C           97.48462483294884        0.47038531368511        6.99708091392409
C           97.47457101114369        0.54861487671120        5.61551932774547
C           99.36016013314345       -0.12395455148697        2.70122738037925
C          100.63201266515942       -0.00921156868861        3.35521163685695
C          101.57179046565480        0.01802864073182        2.38128678827063
C          100.87322720051982       -0.06144547244946        1.13389907020121
N           99.51908384324285       -0.10291639415728        1.34136603724788
N           96.73971360976721       -0.19424916536824        1.36028789453472
C           98.07201069089672        0.42255528510199       -4.93658433269303
C           98.34622917042421       -0.68633472827361       -5.74058222882969
C           98.32673018071871       -0.56985631111833       -7.11828434058757
C           98.03867456596114        0.65842979563411       -7.71617540602400
C           98.03209637816151        0.73324552875571       -9.19697016917261
O           97.74782235484847        1.95531303531517       -9.67181278630164
O           98.25683063163855       -0.19925112507066       -9.92594900958130
C           97.76766712927754        1.76913341724844       -6.91662974249633
C           97.78188629942603        1.64910528556674       -5.53767093216404
H          102.58434955820528       -0.17683655618919       -0.10514479779652
H          102.56937194193701       -0.35429427301081       -2.69490566843970
H          100.66615391551937       -0.09989324124974       -4.58874792134701
H           95.49035172846439        0.87637548482088       -4.45130294958635
H           93.61688027617740        0.71991240089706       -2.52019233385841
H           93.66236713273067       -0.72180612578437        2.50711073870341
H           95.57163644331099       -0.87618355987637        4.40463000852446
H           99.37856926808831       -2.16518185201096        4.89338230143374
H           99.39645781903417       -2.30464032416327        7.37029764040366
H           97.60854453085403        0.11414861939889       10.70531859683168
H           96.95457721926334        1.20845088364116        7.58735001848142
H           96.94373330623444        1.35484215892185        5.12195618977438
H          100.77436348476452        0.04310952548382        4.42236615770516
H          102.64357970207304        0.08645411308728        2.47859619135322
H           98.55981973914494       -1.64276006467307       -5.27721782290232
H           98.53273389131692       -1.42732072189766       -7.74947925781369
H           97.76417755560128        1.91933363605420      -10.64201901318498
H           97.54676956756555        2.72488884657307       -7.37693451923667
H           97.58069273107493        2.51393852927414       -4.91568969871567
C           58.77814777509445       -0.00762669980214       -0.05634055327658
C           57.54950760751409       -0.01094702336803       -0.05428731316878
C           56.20542452973500       -0.01244340158232       -0.04812449414981
C           54.98145062933330       -0.01222495458902       -0.03781922203668
C           60.12194990936552       -0.00340085521061       -0.05686969186236
C           61.34629599396050        0.00134961880339       -0.05491326576159
C           74.76295155286570        0.02987828900137        0.01308781114952
C           73.53197419418466        0.02796049534459        0.01553795972056
C           72.19156702087916        0.02555276682086        0.01522843919461
C           70.96522174922359        0.02629789587144        0.01118071985579
C           76.10332256821913        0.03015378396831        0.01061207986318
C           77.32970369798107        0.03117176836556        0.00457410668457
C           90.74200441994110        0.01511813509027        0.01446879840057
C           89.51273762819405        0.01723817853171        0.01980125342024
C           88.16996775247426        0.02012933471755        0.02166533806491
C           86.94505477652906        0.02204035130339        0.02026300380782
C           92.08503716258504        0.01319577306341        0.00616715380648
C           93.30957842820244        0.01117607497420       -0.00331822213681
Fe          66.15692669664173        0.01531928521960       -0.02031079421371
C           62.74917612988726        0.00611397758727       -0.04927200881538
C           63.42576733625413       -1.20303321025887       -0.24684842697094
C           62.76749156789130       -2.44716474363108       -0.49324642377200
C           63.72423584886732       -3.40671644245870       -0.45316121833889
C           64.96207375134968       -2.74308386311272       -0.17284677846423
N           64.77025652551561       -1.38618647529798       -0.10399269471030
C           66.16253472091513       -3.39871290324801        0.07912985389293
C           67.36162850582632       -2.72759341585224        0.28182680599119
C           68.60418935456420       -3.36950179842356        0.59129891441982
C           69.55847917273614       -2.40715100672190        0.56215695221842
N           67.55072916382700       -1.37567615522735        0.12624858200612
C           68.89378495676084       -1.18156490296765        0.24877018508699
C           69.56614786669917        0.02379155683219        0.00383087963456
C           68.89188147569701        1.22607712110540       -0.25044282449352
C           69.55582074653823        2.45526361143577       -0.55141175401809
C           68.59732080699899        3.41266596674746       -0.59760272946086
C           67.35259383644868        2.76423620262792       -0.31091470383897
C           66.14647999008019        3.42909155644832       -0.13099284108915
C           66.13605746056058        4.90825156180481       -0.18972297871436
C           66.89678813568865        5.65908600679096        0.71032727075807
C           66.88206040834902        7.04047514000741        0.65253693761311
C           66.11186713375849        7.69634744256108       -0.30958477791708
C           66.13312042633034        9.17908045892342       -0.33465626932818
O           65.35087229289222        9.71083176055551       -1.28542521605948
O           66.78233372657888        9.86208883236686        0.41568174109507
C           65.35246062689623        6.95106119355439       -1.21190721543749
C           65.36332527451994        5.56873316630765       -1.14835426696700
C           64.94523454697178        2.76746732469623        0.10145759472610
C           63.69989722697284        3.42500931632397        0.36201011747697
C           62.74783308052056        2.46028257819645        0.39070710291460
C           63.41615658157428        1.21933957530131        0.15580194744904
N           64.76145740187981        1.40974227369411        0.03054774492415
N           67.54578543995305        1.41310260880454       -0.15279200104729
C           66.15915243033309       -4.87805314492873        0.13377597540657
C           65.37218688381310       -5.54696280690606        1.07517352167098
C           65.37064385982654       -6.92857425640745        1.12713914024904
C           66.14985374419764       -7.66690240844235        0.23453811131868
C           66.11092036385219       -9.14677365281345        0.32647039073187
O           66.89214868547920       -9.76058671496271       -0.57442185907427
O           65.44950837659582       -9.76070575275869        1.12418838155267
C           66.93455967307585       -7.00379110862259       -0.70920160415250
C           66.94035010132070       -5.62061929332628       -0.75510968573133
H           61.70929615579379       -2.55717759158835       -0.66721247681381
H           63.61140371492786       -4.46827709022886       -0.60114153487045
H           68.72151816135199       -4.41947525969923        0.80422514389135
H           70.61834706882968       -2.50419590704137        0.73375376646342
H           70.61820755676317        2.55785491168007       -0.70307997945336
H           68.71329240696882        4.46339295426601       -0.80753614316332
H           67.48547061555276        5.15146649741298        1.46586092553471
H           67.46517888180229        7.63008131599776        1.35138680513548
H           65.42048828658676       10.67810400619160       -1.23570439387093
H           64.75587980426037        7.45605920341379       -1.96233509720426
H           64.78252965764585        4.98885615731203       -1.85671898765878
H           63.57926220565138        4.48620942452913        0.50657260918707
H           61.68667810585382        2.56505848718220        0.54936517790391
H           64.77530182990878       -4.97456297643181        1.77603578240334
H           64.76707621859764       -7.45436942392701        1.85876366590732
H           66.81154809851139      -10.72016204004827       -0.44929256896916
H           67.53788968356453       -7.57326407807688       -1.40617900531769
H           67.54041081439543       -5.10523412367816       -1.49644893017545
Fe          82.13670735194401        0.02673789516760       -0.00307367371898
C           78.72863595599932        0.03065441967710        0.00044301294339
C           79.40074866799247       -1.19154104617974       -0.14142937353665
C           78.73648060485631       -2.44079918364913       -0.34164633554421
C           79.69270273249649       -3.40064620662046       -0.29430087697189
C           80.93576204283431       -2.73247072627505       -0.04909098472821
N           80.74492290523118       -1.37236908910555       -0.01250240474593
C           82.13657653393639       -3.38031430909090        0.21230053779237
C           83.33447322541488       -2.70148006037392        0.40942279409288
C           84.57147574799620       -3.33178605136492        0.76069806149500
C           85.52620668725361       -2.37013197404473        0.71482390858430
N           83.52465940648325       -1.35726146309158        0.21079595899762
C           84.86765445372923       -1.15802554969267        0.34234169714023
C           85.54348998477647        0.02384405299766        0.01475367725489
C           84.87343081637545        1.20601260389429       -0.32360410949660
C           85.53787380777557        2.41448109430156       -0.69752424846835
C           84.58460292095941        3.37624798035760       -0.76486014563524
C           83.34272714901752        2.75026123092777       -0.42272905439297
C           82.14424998075152        3.43241420300539       -0.24167072308931
C           82.15496705917616        4.91009312505286       -0.32681468585550
C           82.94529274993576        5.65874321981492        0.54961507580893
C           82.95113223680565        7.03936111488146        0.47709744093829
C           82.17274732644933        7.69674572199281       -0.47733537299802
C           82.21335987653829        9.17893403617403       -0.51607712734833
O           81.42684030529271        9.71237415008030       -1.46225845636402
O           82.88020669729836        9.85964813999219        0.22070424349971
C           81.38634072535774        6.95366954640302       -1.35806014904180
C           81.37642009174559        5.57194392701802       -1.27950997833827
C           80.94142394958726        2.78904101887538        0.02230810801535
C           79.70019452675562        3.46191819737364        0.26375823169704
C           78.74256803770251        2.50424210534736        0.32529851747825
C           79.40381876078034        1.25191753535824        0.13439041927130
N           80.74799607698718        1.42917057794662       -0.00111186579521
N           83.52922170875871        1.40755600229450       -0.21026928224253
C           82.14542905910756       -4.85888484645131        0.28091484701296
C           81.36169504645180       -5.53229559217232        1.22151060943233
C           81.37284112590319       -6.91388953232321        1.27681668064232
C           82.16244639059757       -7.64740419780534        0.38943411193747
C           82.13385707639213       -9.12748943569641        0.48243035537495
O           82.93335227509222       -9.73606563468454       -0.40563632258883
O           81.46453972645620       -9.74576001786984        1.27026651897299
C           82.94659378295775       -6.97960136385995       -0.55151997967629
C           82.93934305500160       -5.59671833944119       -0.60101040986708
H           77.67560504100121       -2.55408090207689       -0.49622385595570
H           79.57576177739638       -4.46531130467422       -0.41405400873168
H           84.68473154350549       -4.37374194998183        1.01192609813756
H           86.58333328651436       -2.46013685004308        0.90601365207263
H           86.59747428633592        2.50193983116489       -0.87577545087631
H           84.70217779549364        4.41571758506340       -1.02417778437418
H           83.54068436610352        5.14994212530195        1.29911717930597
H           83.55655041027542        7.62694438075551        1.15847355294033
H           81.50822954640788       10.67916706688136       -1.42154714920703
H           80.78447390026271        7.45999650208594       -2.10335438685688
H           80.77470640913964        4.99381455709430       -1.97162037281226
H           79.58548368953564        4.52799189771728        0.37285298179862
H           77.68244542429646        2.62084573131816        0.48256442195007
H           80.75743159075977       -4.96382175165013        1.91917729649912
H           80.77118974763020       -7.44354394068589        2.00724695345920
H           82.85748108487833      -10.69613181974331       -0.28124012481999
H           83.55906165816417       -7.54513682031234       -1.24369799134157
H           83.53901469604877       -5.07739064611764       -1.33996111170367
