126
 energy: -233.201422422522 gnorm: 0.000757287754 xtb: 6.5.1 (b24c23e)
Zn          18.97660737622893       -0.05849367731867        0.04474133821312
C           15.56316436187217       -0.11884496438080        0.07395970758771
C           16.19389536917678       -0.16643367449115        1.31110036181390
C           15.52102461150773       -0.21025659249668        2.57934977291171
C           16.48057353405534       -0.21455251187864        3.53775617555197
C           17.75259098411439       -0.18107813071772        2.86497587529293
N           17.54338232689762       -0.14981499594910        1.51785683305298
C           19.00316957941816       -0.13258223322869        3.49179531917874
C           20.24164931946411       -0.05187280375155        2.84510059325010
C           21.51680755678669       -0.02256959024885        3.50473449002228
C           22.46501576380568        0.02103546420506        2.53516760302469
N           20.44159682059398       -0.03404145265724        1.49029705626970
C           21.78547873458065        0.00324562369898        1.27423830142308
C           22.42503234652088       -0.00893904929267        0.01713479460119
C           21.76480107713409       -0.03131240679538       -1.22907919536699
C           22.42101906793675       -0.09363389604392       -2.50079082289482
C           21.45559362307090       -0.06956414046656       -3.45404906456378
C           20.19363521155437        0.00767764777830       -2.77304548100307
C           18.94286936452828        0.04345208369216       -3.40167856690203
C           18.93393146160611        0.10843946652414       -4.88278015785957
C           18.32514871234200       -0.89790889218398       -5.63801135243548
C           18.31605903722228       -0.82715391954256       -7.01879320666545
C           18.91220581156990        0.25310538380970       -7.67264765343767
C           18.87323159084029        0.28688646814371       -9.15351705445080
O           19.47387416197849        1.36438523277660       -9.68252823400485
O           18.35766594936199       -0.55782233792136       -9.84103612159694
C           19.52180456773828        1.26072034310222       -6.92408100395656
C           19.53306722535153        1.18528367828409       -5.54260925889749
C           17.70147014457756        0.02616239590623       -2.75444619131672
C           16.41713691749002        0.10038673169101       -3.40028463036473
C           15.47547868158924        0.04558848032013       -2.42585926296321
C           16.17172890742191       -0.04874395250838       -1.17316034168657
N           17.51734439146762       -0.04994926537328       -1.40524437663209
N           20.41735389508994        0.01266464036703       -1.42235238535951
C           19.01369121844793       -0.17307092757868        4.97491064511223
C           18.52927853899542       -1.29609378675496        5.65106239836369
C           18.53884573027892       -1.33785479920068        7.03291820898230
C           19.02762239879500       -0.25467255179153        7.76604249586768
C           19.01462872094400       -0.34561051672923        9.24492732707624
O           19.50028347425389        0.74670663616308        9.85532088930786
O           18.61152626107041       -1.29682292597541        9.86517008534172
C           19.50937797186268        0.87055925800664        7.09605388932353
C           19.50377178818775        0.90746201591270        5.71262459611091
H           14.47766532760875       -0.12484382585510        0.08317816965603
H           14.45014760066095       -0.22736659559017        2.70801797486571
H           16.34424398699976       -0.22591411935088        4.60729477132704
H           21.66823070261600       -0.04303610107104        4.57186275442026
H           23.53367476300154        0.06160085859266        2.66066636653007
H           23.48606934001119       -0.16215431307009       -2.64366328539625
H           21.58542123193668       -0.11965132211810       -4.52306445351049
H           17.87401522303805       -1.74521319511403       -5.13413008145487
H           17.84902796485893       -1.60727676143853       -7.60996592236792
H           19.40435607118591        1.31024931183120      -10.64946174066255
H           19.98359162139726        2.10244227999523       -7.42661337787563
H           19.99512740575384        1.97529256191429       -4.96115014585255
H           16.26018381907625        0.19507056064018       -4.46277894388260
H           14.40246837224321        0.07413257202366       -2.53309924025153
H           18.15999174933683       -2.14251680936279        5.08309916687065
H           18.16989942131031       -2.20899452085683        7.56317283458348
H           19.45644787525477        0.60619325857815       10.81500497280337
H           19.88565498521561        1.71531368171692        7.66104932903292
H           19.86689628778572        1.78712068847924        5.19292633211455
Zn          29.91582757088758       -0.05320432134841       -0.05124038826238
C           33.32926105685623       -0.10952699323664       -0.08721035636839
C           32.69852086846051       -0.01415668610547       -1.32158415110767
C           33.37138451689577        0.08858496809405       -2.58642742105686
C           32.41183007937078        0.19481941500177       -3.53893282598823
C           31.13981017212403        0.15042129563622       -2.86678482738097
N           31.34903204483879        0.02613842936867       -1.52504828275342
C           29.88921596746213        0.27084153876437       -3.48382102049332
C           28.65073318294223        0.27635422693563       -2.83212250416318
C           27.37557176768987        0.38171485608302       -3.48394231975438
C           26.42736811575349        0.31330975754560       -2.51580122480776
N           28.45078470769976        0.13759885297415       -1.48432679329040
C           27.10690290718444        0.14990170494195       -1.26538350768074
C           26.46740247240555       -0.00716354608452       -0.01805327209220
C           27.12768500805188       -0.17308113832363        1.21724837906240
C           26.47145185043761       -0.38129377157725        2.47334271540584
C           27.43687850321416       -0.46737221950291        3.42300686185470
C           28.69884187266538       -0.31231074341846        2.75542026810746
C           29.94960183798748       -0.34916555715511        3.38399236923389
C           29.95854102668304       -0.45533780409875        4.86271226417428
C           30.56731930451777       -1.54205176179143        5.49687763314912
C           30.57639084528558       -1.63098207761818        6.87660706060401
C           29.98023491533609       -0.63332165001432        7.65065313376668
C           30.01919586708386       -0.77052476562666        9.12554020600151
O           29.41854534152827        0.23878440713794        9.77526551758999
O           30.53475726558490       -1.68887686692019        9.71107338061959
C           29.37064286072677        0.45388659833088        7.02325539118854
C           29.35939320217826        0.53824312492009        5.64229822981053
C           31.19099060155514       -0.29168836654367        2.73906993741301
C           32.47532673305786       -0.29238111186060        3.38914990580167
C           33.41697452822728       -0.23443838371534        2.41489676406395
C           32.72071120535441       -0.18371725788817        1.15968095068764
N           31.37509885732006       -0.21172502540433        1.39008719894920
N           28.47513354983282       -0.15185284236350        1.41428100985684
C           29.87865805244240        0.40168058749721       -4.96170261150778
C           30.36318634768162       -0.63582566799744       -5.76286434182921
C           30.35356792814716       -0.51798051977967       -7.14031615751905
C           29.86466128107219        0.64252120123888       -7.74360913546790
C           29.87846887975074        0.72315844835280       -9.22301908893647
O           29.39133001765090        1.87786084056688       -9.70353237055458
O           30.28250597293728       -0.14990824949334       -9.94878819485721
C           29.38271648353205        1.68292445033308       -6.94832455560739
C           29.38840943205361        1.56002861811823       -5.56988266514873
H           34.41476041076725       -0.11439408873573       -0.09706438780186
H           34.44226184078868        0.08645459841333       -2.71621045614664
H           32.54815975778996        0.30688813509878       -4.60264396194200
H           27.22414368825504        0.48454749735457       -4.54630072012614
H           25.35871387824098        0.36820860443362       -2.63576006356888
H           25.40639438878595       -0.46570659102128        2.60738345159766
H           27.30704121309475       -0.64027702465127        4.47913348386024
H           31.01845211000654       -2.32560749324980        4.89866225337132
H           31.04341285204404       -2.47406967490169        7.37388791055601
H           29.48805585106012        0.07351026537286       10.72950696664331
H           28.90884799403856        1.23204820532767        7.61948729956704
H           28.89733318620624        1.39002632603380        5.15580594481690
H           32.63228620770278       -0.32083239510954        4.45547461391000
H           34.48998507687130       -0.21842703409558        2.52470629168013
H           30.73266649436459       -1.54202301327820       -5.29629826059655
H           30.72281275046381       -1.32201768791935       -7.76749518635812
H           29.43570826023659        1.84882474118126      -10.67306288840945
H           29.00630449932124        2.58711889789038       -7.41215255704927
H           29.02525257469529        2.37385952739993       -4.95220501930770
C           23.83702686846107       -0.00857262879593        0.00657535318484
C           25.05541175726371       -0.00495992580336       -0.00676310477431
