244
 energy: -416.159473763339 gnorm: 0.000293601937 xtb: 6.5.1 (b24c23e)
Fe          51.42367141369494        0.00830011853476        0.04196304056286
C           48.04401624119632        0.03025680232089        0.08686143130711
C           48.68835059550114        1.03199306838853       -0.61133525247774
C           48.01629501698622        2.05353136081494       -1.35541474730986
C           48.96850674897696        2.92728797707203       -1.76261536469566
C           50.21930899576572        2.44676775826026       -1.25074821986281
N           50.04034148071750        1.25669655506176       -0.60048027012707
C           51.42130072295986        3.14811329311919       -1.32300292037645
C           51.42145505616183        4.50592022078430       -1.90709361959460
C           52.25063536028225        4.81626734803340       -2.98879202320141
C           52.25299491010362        6.08444280743771       -3.54081173152146
C           51.43312288966434        7.08284660416628       -3.00784967915275
N           51.40479783753935        8.34193643183507       -3.58047691990886
C           50.59901023914379        6.78078550383185       -1.92797989248012
C           50.59450088082093        5.50688211893262       -1.38936538297584
C           52.61986149232529        2.61985640571436       -0.85840775224128
C           53.86134866030667        3.33395903000195       -0.83107687111486
C           54.81477078577741        2.44678212078994       -0.45377385292445
N           52.81051395942116        1.32521607872988       -0.43857389125623
C           54.15390342952805        1.19750854963936       -0.24538733525167
C           54.82507431341722       -0.00466059409185        0.01756068482965
C           54.14914833884504       -1.20329688525499        0.28470701499274
C           54.80421542177822       -2.45837985954498        0.47628145676358
C           53.84856025537158       -3.34279759545547        0.85460041282886
C           52.61247878559161       -2.62029692278358        0.90326478496582
N           52.80731933072307       -1.32340358664558        0.49171451771110
C           51.41727771771364       -3.14088794707093        1.38455805108936
C           51.41147792169400       -4.50463965173564        1.95436230861732
C           52.25883473618439       -4.83964096577560        3.01436704031826
C           52.25342494387966       -6.11382743452693        3.55242796243932
C           51.40641424145449       -7.09348814439191        3.02714165324417
N           51.37031574215187       -8.35790916258421        3.58687158921351
C           50.55364560753426       -6.76658446738554        1.96923069888802
C           50.55754692019082       -5.48697010212094        1.44454037184401
C           50.22256533678150       -2.42406913868939        1.34694192689799
C           48.98015389176169       -2.89094464768664        1.89085487643918
C           48.02959793391774       -1.99949870603056        1.51973712098556
C           48.69439553739677       -0.98231699547363        0.76328183827384
N           50.04222053507096       -1.22664671268155        0.71113534205696
H           46.95984455912450        0.03799963130196        0.10301923833732
H           46.95289776770419        2.08270368157420       -1.53338466669094
H           48.84586900314019        3.81667566054806       -2.35932528287899
H           52.88217394357236        4.04441114216753       -3.41490440289859
H           52.89147111279517        6.30901791258282       -4.38828149665062
H           52.22754299282698        8.59166610646421       -4.10543778560169
H           51.06356322544185        9.07645016442155       -2.98135924718496
H           49.95907074933685        7.55102166547028       -1.51143528766616
H           49.95967037301922        5.28694708478762       -0.53801996409506
H           53.97915096012360        4.38046413195085       -1.06100652973875
H           55.87098601576005        2.61400647022953       -0.31929566817939
H           55.85818867063363       -2.63080802162717        0.33021919990109
H           53.96175278964071       -4.39219848601451        1.07337533138246
H           52.91095361137838       -4.08232939601996        3.43554409991127
H           52.90649791082171       -6.35751741693912        4.38333647904368
H           52.19874733825029       -8.62642838852100        4.09309074359312
H           51.00316741483446       -9.08067238413479        2.98893772898318
H           49.89236613494361       -7.52203097675656        1.55899172012372
H           49.90752489746463       -5.24759536933548        0.61007466165722
H           48.86186394386552       -3.78336959116577        2.48389638054916
H           46.97164263955010       -2.01443785643562        1.72911165761489
Fe          83.95281886325722       -0.03514349721023        0.08261370446290
C           87.33786283746129       -0.01821057273275        0.15453764119594
C           86.68881123808028       -1.15092660080809        0.60209535235950
C           87.36329727453747       -2.32921012177465        1.05536641486708
C           86.40691297104512       -3.16970228177255        1.51750228292152
C           85.15061401360563       -2.49546648900938        1.36062935939680
N           85.33316898661555       -1.28228731204770        0.75497500220323
C           83.93566228639526       -2.98976960389023        1.82881587883985
C           83.93044060818627       -4.25639450680859        2.59299109629505
C           83.17366897284859       -5.34878369879345        2.16091168393747
C           83.16677112825140       -6.53399710883008        2.87431140146420
C           83.90809569441093       -6.64715228110079        4.05345823497981
N           83.93317094894502       -7.84234071290185        4.75028611643341
C           84.67047254103893       -5.56071367289710        4.49080101654155
C           84.68068236711287       -4.38313122819781        3.76528028900511
C           82.73007335092390       -2.33341700024647        1.61614333902227
C           81.47267481040620       -2.77435203726435        2.14271954812558
C           80.52543815223815       -1.94607737164591        1.63929721647977
N           82.55266553407506       -1.21319284064529        0.83969639152636
C           81.20669767518014       -0.99744041892415        0.81574769237946
C           80.54724241246187       -0.02768236651117        0.05109743093624
C           81.22476537052317        0.93114877893445       -0.71170120227653
C           80.56329974250329        1.86819688315331       -1.56404667419114
C           81.52475079233967        2.67642260401067       -2.07305379285515
C           82.77026171770484        2.23950048226247       -1.51562619984251
N           82.57238286712511        1.13644343442805       -0.71921874923743
C           83.98138006955354        2.89092852679027       -1.71018487320712
C           84.00056188770368        4.13768182102037       -2.50612913791097
C           83.22993111970754        5.24089896949999       -2.12968718064356
C           83.24491244625551        6.40510072187401       -2.87681988620393
C           84.02334128026342        6.48560418721115       -4.03452374076278
N           84.06792991181975        7.65973913205314       -4.76551014351429
C           84.80217056702298        5.38929338546672       -4.41449221207698
C           84.79011065508816        4.23312010768689       -3.65539947903727
C           85.18099582375829        2.41397496228866       -1.18707430424009
C           86.43596868022490        3.09912856948901       -1.30098498423513
C           87.37843007249157        2.28126569006343       -0.77415852359465
C           86.69680873978903        1.10323569878323       -0.33078458612074
N           85.34821121615437        1.21547393485649       -0.54934362822063
H           88.42189109486350       -0.01138375898699        0.18030632415748
H           88.43090086088591       -2.47737717939222        1.01527657806164
H           86.52947776153628       -4.16057297827553        1.92393448101958
H           82.60297328466176       -5.27204754337048        1.24189706931104
H           82.58510111637206       -7.37892503106224        2.52208305543416
H           83.14240001037948       -8.44608072775940        4.59213386469975
H           84.20213059515737       -7.76661534202198        5.71819321504013
H           85.24993219419591       -5.64357516345245        5.40384252982237
H           85.25914649013713       -3.53802193628752        4.12212113707822
H           81.34083054092272       -3.60394345875516        2.81813586903738
H           79.46078602126262       -1.96171816313111        1.80814502573958
H           79.50146323230865        1.88806291233390       -1.74938863071943
H           81.40956280826335        3.49084070544702       -2.76962322939160
H           82.63052194235607        5.19000576469199       -1.22731354301090
H           82.65142390177240        7.25872697759961       -2.56793817535486
H           83.27079830138898        8.26489740187613       -4.65028920651929
H           84.36608266411626        7.55546214008373       -5.72217262193238
H           85.41172523901606        5.44745716896783       -5.30967018850281
H           85.38210980725171        3.37979621153094       -3.96773964906183
H           86.56641480420626        4.08227160548372       -1.72346589859789
H           88.44119803877220        2.44324815193437       -0.68687791471633
C           56.22713243326653       -0.00974927432900        0.00979754856494
C           57.44664817844286       -0.01437640978725        0.00383420073716
C           67.06580697814240       -0.01208749952788        0.00178140010406
C           68.28624806626284       -0.01131267250039       -0.00139395956423
C           77.92497147055174       -0.01822688879817        0.03874240101947
C           79.14358956824982       -0.02165182204839        0.04368310768970
Fe          62.25694794309804       -0.01406651940291        0.01449462339065
C           58.84827735553864       -0.01798161531300       -0.00107482017290
C           59.52260647122739        1.06903418918725       -0.57544060918670
C           58.85751819331806        2.17611529957292       -1.18446164469885
C           59.81157984219250        3.09958170059521       -1.45980454062578
C           61.05915073452793        2.54439583233385       -1.03051257001988
N           60.86793989354108        1.28247829129316       -0.52363922752476
C           62.25493901448809        3.25464351594284       -0.98286561661143
C           62.25307507576867        4.67360935582489       -1.40726870802906
C           61.96305025053900        5.02180844115582       -2.72839372294135
C           61.96697642089726        6.34616940882184       -3.12865161003839
C           62.24572047597671        7.35721964941334       -2.20511677871368
N           62.28858433632203        8.67932344866286       -2.60991230673110
C           62.53914711462473        7.01575796075581       -0.88215930733728
C           62.54464675114621        5.68831312062180       -0.49271665524407
C           63.45155009844587        2.69183844043923       -0.55408767626736
C           64.70015572437130        3.39157121345796       -0.51641578585679
C           65.65600855328508        2.47048570398588       -0.24094784403639
N           63.64547454807270        1.36028359266624       -0.27419067558536
C           64.99103043595882        1.21203724398709       -0.12402326120135
C           65.66580388828609       -0.01046936769062        0.01342354129757
C           64.99174846779360       -1.23214930009322        0.16084840518972
C           65.65079311306786       -2.49696999310449        0.23047632126564
C           64.69538103530896       -3.41816081499330        0.51127614032750
C           63.45770605376087       -2.70729936146981        0.62024617879812
N           63.64957327324543       -1.37547665143230        0.34401740495177
C           62.25848944321328       -3.27759997808048        1.03500196283793
C           62.26005671268569       -4.68680322557477        1.47774964312966
C           61.42104233799575       -5.62686012651090        0.87197632192880
C           61.42621914038683       -6.94865073074033        1.27821627076873
C           62.26184329490150       -7.35905626646500        2.32089499743389
N           62.29669528332543       -8.68650362214058        2.70529834850210
C           63.10479575197118       -6.42600692710109        2.93145592923992
C           63.10381402898854       -5.10922654761182        2.50946964489641
C           61.05718335871586       -2.57360265621881        1.04783017842536
C           59.81898393566964       -3.09857751267882        1.53716102452535
C           58.86206793948566       -2.18477815765665        1.23674260396783
C           59.52124411545867       -1.10399880649643        0.57681626664829
N           60.86514183997834       -1.32349077565460        0.51420295271688
H           57.79636140380386        2.23425349670813       -1.36318353385834
H           59.68452669632071        4.07662813578567       -1.89651524303656
H           61.75541294926418        4.24206477396310       -3.45287062863759
H           61.75309607166002        6.60426943541874       -4.16006418421589
H           61.76540462684345        8.88881006031025       -3.44486743326448
H           62.17194418315412        9.35637143178328       -1.87317923558847
H           62.75915133172051        7.79595994740885       -0.16172080050891
H           62.75599653540700        5.43183814010260        0.53952796727793
H           64.82610167158799        4.44627454759028       -0.69832672780270
H           66.71799201012378        2.61809774062610       -0.13328500349419
H           66.70618230165920       -2.65093090346119        0.07526451890212
H           64.81076984468046       -4.48377049454404        0.62437061822583
H           60.77819843934961       -5.31926054328365        0.05454676888723
H           60.78190932829133       -7.67154294920044        0.78987595283245
H           62.65480934290260       -8.85633881324820        3.63132908691162
H           61.47400309186166       -9.22160489218227        2.47851716507232
H           63.75645031097886       -6.73896080358239        3.73989925241318
H           63.74648638330268       -4.38752815397459        3.00159005476061
H           59.70374888484913       -4.03881076863347        2.05138778003334
H           57.80541538052762       -2.22631127835012        1.44525328287899
Fe          73.10507843583747       -0.01396531907899        0.02298493848172
C           69.68674273966163       -0.01460706396065       -0.00322492308643
C           70.36127594653787        1.10557734279660       -0.50996914506488
C           69.68647374162009        2.24624591335870       -1.04216340618438
C           70.64103735244942        3.16554938798976       -1.32472579406516
C           71.89824787280217        2.57337671378977       -0.98004726211950
N           71.70960263460279        1.29944504480076       -0.49906650182259
C           73.11027840560546        3.25119921450276       -1.02584225977792
C           73.11321924279673        4.66664263951286       -1.46236694084781
C           72.72019192804129        5.01752874744963       -2.75593806437921
C           72.72576310668505        6.33961009350518       -3.16364692044331
C           73.12200022602586        7.34523688347369       -2.27788351829746
N           73.08089588540234        8.67260990252043       -2.66558446370757
C           73.50410082477310        7.00274639472666       -0.97804408074024
C           73.50698150793940        5.67734281457014       -0.58199096941255
C           74.32289278413189        2.66421753283491       -0.67893667440040
C           75.58373193701290        3.33715651408422       -0.76406768059965
C           76.53696039402948        2.41830309113765       -0.47389143208446
N           74.50568132196555        1.34899133205995       -0.32987946778175
C           75.85550917510538        1.18851800034985       -0.22293352254751
C           76.52168361370285       -0.01495758249594        0.03900095391825
C           75.85138586798037       -1.21693488692117        0.29814564826535
C           76.52476460427864       -2.46029369820173        0.49774095401336
C           75.56738895598363       -3.37888795293039        0.77708364285591
C           74.31488010703700       -2.68614348738733        0.75955960498232
N           74.50220778459509       -1.36825110762361        0.42402180955528
C           73.09731921087406       -3.27581444986215        1.08587628208033
C           73.09198100091773       -4.68535565155407        1.53301591168495
C           72.35447190555197       -5.64818819774868        0.83819617112639
C           72.35508689413338       -6.97060909071776        1.24283529213081
C           73.09250878110191       -7.36052887865243        2.36426408398720
N           73.05745925243426       -8.67257341082486        2.80007859861405
C           73.81837907366635       -6.40072224123260        3.07513856998573
C           73.82345406514885       -5.08279027970598        2.65563591999954
C           71.88521397374883       -2.60026499488496        1.00584457049736
C           70.63093691613184       -3.16173730369037        1.40714378978794
C           69.67803951105675       -2.24977592687579        1.09397593289242
C           70.35475587998516       -1.13478435355533        0.51224949109126
N           71.70177138465728       -1.33670507559170        0.49780255234797
H           68.61963185674158        2.32593577278159       -1.17085031016630
H           70.51005443178867        4.16081049656822       -1.71650371302351
H           72.42860646567463        4.24102196870538       -3.45450851486824
H           72.42589365253856        6.59983004796226       -4.17287273289723
H           73.11852965757178        8.82897276946754       -3.66007021010679
H           73.66901919539846        9.29237067461494       -2.13181539755572
H           73.79920661259578        7.78019985227430       -0.28189339326156
H           73.79653854203876        5.41953770182068        0.43078084085687
H           75.71723501608955        4.37286494255924       -1.03033280793214
H           77.60646658388529        2.54796161641264       -0.43791987396112
H           77.59048206964711       -2.60274130381830        0.42065524750046
H           75.69130484284644       -4.43246518852264        0.96715060759979
H           71.79523636052431       -5.35675566445697       -0.04406443260938
H           71.78730752417009       -7.71037873417686        0.68918109693218
H           73.83368112713524       -8.95305254869240        3.37764670511304
H           72.80343352255454       -9.34979488580171        2.09887664112255
H           74.37884654953289       -6.69452258474767        3.95590550341412
H           74.38163425872133       -4.34238844797687        3.21803328385789
H           70.50393957732972       -4.12243510259075        1.87873466568145
H           68.61323355687250       -2.31186730695137        1.24827515382767
