122
 energy: -214.336411526601 gnorm: 0.000754317565 xtb: 6.5.1 (b24c23e)
Zn          15.59651945973096        0.01862508682457       -0.00188525922160
C           12.19072497393221        0.04096496421114        0.15171142972911
C           12.82681330489906        1.26096275676310        0.34662160398441
C           12.15942012748123        2.51199447255395        0.57514152110934
C           13.12303341510052        3.45572386524320        0.71798898862812
C           14.39252261866000        2.78988046691493        0.58881111142020
N           14.17721433403136        1.46365759158751        0.35450201563386
C           15.64697462511151        3.40802030242309        0.66438465725167
C           15.66794706545610        4.86163870237114        0.95865668475665
C           15.14438019486230        5.34743771462196        2.15930065762157
C           15.16515773398022        6.70136889077867        2.44165479402576
C           15.70863927969165        7.60108178056966        1.51978130557741
C           15.73021159938546        8.99513582753764        1.80616465023173
N           15.74766712571194       10.12216605209334        2.03807191403112
C           16.23113266665766        7.12092361734251        0.31511441655306
C           16.21169138351651        5.76494762352637        0.04225931923266
C           16.88211064738818        2.77311303086955        0.49206800556617
C           18.16637654487293        3.40415405743689        0.62435698326067
C           19.10570606351312        2.45066127294261        0.39881428047464
N           17.06614275025532        1.44760132281031        0.20291095671029
C           18.40645333107821        1.22719503986879        0.13617645081128
C           19.02865057937721       -0.00639710627637       -0.14242642615493
C           18.36760508020564       -1.22924861253074       -0.37369629032490
C           19.02506570117803       -2.46254183848974       -0.69217835899160
C           18.05649886168091       -3.40184726528127       -0.84108250441414
C           16.79673791276332       -2.75235398166360       -0.60355422445405
N           17.02310259519029       -1.42960986424490       -0.33216964213222
C           15.54289955991262       -3.37059280558402       -0.66605564133076
C           15.51744318155092       -4.82600049010468       -0.95191023331624
C           14.88616912925700       -5.31144570422885       -2.09967914108254
C           14.85960488134749       -6.66782682711626       -2.36997781325644
C           15.46233472805393       -7.57001893056147       -1.48828850181327
C           15.43308173367760       -8.96675613985280       -1.76098876232823
N           15.40847642558725      -10.09607277476244       -1.98155651407921
C           16.09330503791307       -7.08996889474494       -0.33665038779354
C           16.12112701305253       -5.73168686978753       -0.07633239134957
C           14.30828604938558       -2.73614571116822       -0.47980706264332
C           13.02395432921680       -3.38580960070201       -0.49133215300451
C           12.08942726139960       -2.42972470834296       -0.26302886716020
C           12.79068717011747       -1.18705604853690       -0.09909519725554
N           14.13202506841684       -1.40699083994302       -0.23005090615285
H           11.10627912000904        0.04786657186919        0.20143498658373
H           11.08907740972112        2.64114568136372        0.61138769797344
H           12.99018477741151        4.51282478109465        0.88391473987311
H           14.73380299420795        4.65153152375633        2.88224443181587
H           14.76268830152456        7.06933640449993        3.37820903750986
H           16.64971668485460        7.81591400072091       -0.40340707519863
H           16.60688789115276        5.39785488031267       -0.89827397253037
H           18.32800231341173        4.44089518176049        0.87192186722803
H           20.17859315162164        2.55758815723502        0.41490120848162
H           20.09148867234416       -2.58474091966320       -0.79534590127381
H           18.18135180155874       -4.44064720068498       -1.10101367407668
H           14.42745594373714       -4.61412905590630       -2.79166865039013
H           14.37290368480048       -7.03609398268743       -3.26555284090566
H           16.55778363113467       -7.78674974961343        0.35133338642132
H           16.60063621429568       -5.36407696372594        0.82397289705122
H           12.86313809283093       -4.44133574051396       -0.64194928819574
H           11.01873747884565       -2.54533223986311       -0.20057147389681
Zn          31.63502807393201       -0.01955306703035       -0.00109685932016
C           35.04082227725449       -0.03389472661337        0.15226857457300
C           34.40482170886607       -1.24199618817252        0.41125834074254
C           35.07218935973818       -2.47918298304052        0.70594713738238
C           34.10855091349822       -3.41393232285199        0.89899299559701
C           32.83910700245590       -2.75592637594083        0.73434912092813
N           33.05443381500933       -1.44403960551276        0.42977789851672
C           31.58468944526412       -3.36918065720111        0.84243238307631
C           31.56254981610526       -4.80431096892581        1.21668114433379
C           32.08249878317848       -5.22218223000242        2.44412972479573
C           32.05624898745643       -6.55756488186346        2.80378722667035
C           31.51093210681577       -7.50679898677126        1.93414950249555
C           31.48148808022907       -8.88172086941802        2.30121117343713
N           31.45702315564610       -9.99302821527326        2.59914572221254
C           30.99365529407004       -7.09502227298627        0.70224443851880
C           31.01854843423911       -5.75702875895219        0.35194376687526
C           30.34953779368209       -2.74449138463852        0.63600256992307
C           29.06528250020042       -3.36808259352638        0.80030954779474
C           28.12591803316569       -2.42775928300866        0.52519112616742
N           30.16542207346847       -1.43592609466924        0.27823184552747
C           28.82506341540217       -1.21940403260756        0.20000527876457
C           28.20276685368865       -0.00169189296630       -0.14108173014377
C           28.86375830410829        1.20754726794635       -0.43515314411090
C           28.20602252698983        2.42267535528457       -0.81657705152370
C           29.17453715905475        3.35268172973911       -1.01555798985822
C           30.43451614330272        2.71629832926231       -0.74592045861103
N           30.20828081084566        1.40956075546319       -0.40544705746912
C           31.68840083196248        3.33010086603973       -0.84236839283333
C           31.71233633356238        4.76780862011815       -1.20717345724176
C           32.33962225612012        5.19003701205282       -2.38176816988456
C           32.35994835368373        6.52909084012169       -2.72841285776147
C           31.75513532066914        7.47738223683293       -1.89785826027760
C           31.77550856588557        8.85623537493408       -2.25042108908217
N           31.79104497273024        9.97076660352390       -2.53649683315693
C           31.12947892805819        7.06087483561451       -0.71895526536686
C           31.10783075157769        5.71937213615283       -0.38221778364467
C           32.92307460193415        2.70627390810656       -0.62379144374210
C           34.20739563394547        3.35432491681247       -0.67048273130919
C           35.14200470497060        2.41161421571077       -0.39223601282543
C           34.44081723946157        1.17933268995892       -0.16251035165658
N           33.09941863664042        1.39216131365824       -0.30416255820912
H           36.12528775732657       -0.03819368232694        0.20202968861745
H           36.14253367885516       -2.60626374743044        0.74898555432312
H           34.24119800858602       -4.46070604688820        1.12113389917657
H           32.49382355557933       -4.48722111079433        3.12688697893976
H           32.45513134714989       -6.87246560644790        3.76098670601773
H           30.57413701824509       -7.82871552178859        0.02384003598875
H           30.62670495205319       -5.44327499024154       -0.60906083185016
H           28.90354958940111       -4.39063536449890        1.10099213615601
H           27.05304270511581       -2.53391991542620        0.54621980494506
H           27.13950075978842        2.53958355298895       -0.92454454092792
H           29.04931245664554        4.37646821709604       -1.32931543414187
H           32.79946182179995        4.45643711827319       -3.03439908864872
H           32.84259240928480        6.84800310868263       -3.64487947260298
H           30.66324638271413        7.79348520099311       -0.07063396463769
H           30.63176260927905        5.40139826691324        0.53854931480866
H           34.36792984569383        4.40041288267887       -0.87697499480923
H           36.21272669605685        2.53033600379076       -0.33641495261751
C           24.22980810295747       -0.00115058341120       -0.21808428437831
C           23.00164162773395       -0.00965228877176       -0.21855901006637
C           21.65719052580909       -0.01164202881046       -0.20609498124106
C           20.43361109490462       -0.01672477334816       -0.18546241237456
C           25.57422642571548       -0.00069920980912       -0.20375522624653
C           26.79779992233776        0.00673014789249       -0.18417178957511
