124
 energy: -225.091506288018 gnorm: 0.000485426916 xtb: 6.5.1 (b24c23e)
Ni          13.60262422569857        0.05377780730569        0.00708304070416
C           10.19846685034011        0.11119247328777        0.00420560375967
C           10.85689399648883        0.92072976829460        0.90548443950098
C           10.18625918749447        1.77431022374358        1.83772138557337
C           11.15108552211804        2.43284139674369        2.52293266144805
C           12.40521331354469        1.98004386342869        2.00394947164723
N           12.22087099383357        1.04609671067101        1.02270323201377
C           13.63665248079311        2.47482452245289        2.43497020705324
C           13.65278036728510        3.47413171845473        3.43272707703728
C           13.66846394293289        4.33544620267854        4.28704120334172
C           13.69268818465683        5.34152624976263        5.28023251265331
C           14.89793053401474        5.91790917266393        5.69798257179615
C           14.86862471748818        6.90198106217843        6.66997099976994
N           13.74359784146032        7.33311766198175        7.23475236970425
C           12.59382349805903        6.78973064670628        6.84340067461871
C           12.51398570754483        5.80079062313271        5.87908847799664
C           14.85296805027583        2.03262937337135        1.91458728701361
C           16.11648114993378        2.54666997979430        2.33830143118497
C           17.06364512165814        1.86625846215769        1.64765561304898
N           15.01579442861447        1.05336737909155        0.96770873500526
C           16.37174099828255        0.94068214948676        0.80871709882791
C           17.02715507150935        0.02894910534637       -0.02326561781354
C           16.34487248043311       -0.88074407172220       -0.83539572359616
C           17.00834061353619       -1.82772354444008       -1.67330612268365
C           16.03900105452348       -2.51021257645701       -2.33048376969626
C           14.79067434018421       -1.97292543825286       -1.89075714735912
N           14.98465017834157       -0.97986539511086       -0.96433654515244
C           13.55924922895630       -2.39911683705126       -2.38831189927957
C           13.53951953565388       -3.41587541770554       -3.36823563810858
C           13.51786700386058       -4.29164989174104       -4.20757953602798
C           13.49011329894565       -5.31302849887947       -5.18495656770275
C           14.66399149142512       -5.94958958350788       -5.60425432706369
C           14.58110632833310       -6.94448219230308       -6.56212251408742
N           13.43276590822829       -7.33101732757641       -7.11201867831884
C           12.31246687473827       -6.73000771902244       -6.71936094644691
C           12.28645448594329       -5.72560655511344       -5.76825510473789
C           12.34426695474309       -1.86076977421973       -1.96244194505606
C           11.07640971667513       -2.27636930349538       -2.47921519672461
C           10.13378020802636       -1.56927219203824       -1.81181001455796
C           10.83135854291324       -0.72731436255649       -0.88881671968406
N           12.19033752542170       -0.90462519523654       -0.99746666569111
H            9.11479649446202        0.13147652419500        0.00084833591729
H            9.11502674607098        1.84686392784142        1.93781396118302
H           11.04323773397804        3.16441847824229        3.30759328914542
H           15.83697520534808        5.59648482831291        5.26385244817885
H           15.78861924928267        7.36697860677201        7.01239453497070
H           11.69522593022009        7.16482447904774        7.32475654330281
H           11.55593488612049        5.38610532057800        5.58967141540789
H           16.24567210113605        3.32592454966667        3.07193343002493
H           18.13585579996642        1.96732186378240        1.69379135968921
H           18.07819363124917       -1.94157648058539       -1.74047835323518
H           16.14360650776348       -3.30350339896181       -3.05292571514676
H           15.62054863880958       -5.66570370377031       -5.18240877283952
H           15.47579275104227       -7.45592566253278       -6.90537869364818
H           11.39354969534761       -7.06963714320509       -7.18854360062863
H           11.35108754955292       -5.26296406978105       -5.47727127100175
H           10.94475556058451       -3.01658892086031       -3.25204017831716
H            9.06109437206081       -1.60319130051058       -1.91668965366543
Ni          32.19514020107100       -0.03673124867697       -0.04479172055549
C           35.59926761880325       -0.06283210225946       -0.09529915696788
C           34.94119338213189       -1.25263597023601       -0.32441703697964
C           35.61215165115837       -2.49134683147875       -0.57507093700180
C           34.64760236824121       -3.41785547055261       -0.78792102440181
C           33.39333064790786       -2.73977533346120       -0.66880712867399
N           33.57728130670100       -1.41778575272170       -0.37283769279416
C           32.16215603609390       -3.36350739797551       -0.87422961984926
C           32.14653333837374       -4.73293527118445       -1.21888502352385
C           32.13170549063934       -5.90828107555096       -1.51935141863769
C           32.10906386320264       -7.27686376799222       -1.87384396162047
C           30.90461022856769       -7.93284427431877       -2.15362537506310
C           30.93565639665368       -9.27196717053492       -2.49979682581186
N           32.06163228963374       -9.97633200406448       -2.58081259462989
C           33.21067887216048       -9.36004591490699       -2.31563676432745
C           33.28878260905007       -8.02489241593496       -1.96136416527266
C           30.94581130143152       -2.68952677315285       -0.76465740185870
C           29.68259209618690       -3.31678276811439       -0.99064177624483
C           28.73516454242355       -2.37485320174924       -0.76214517267190
N           30.78258063229550       -1.37437086429779       -0.41003522825146
C           29.42659770041585       -1.18011930851077       -0.39642141229105
C           28.77066794431069        0.00128240630894       -0.04005773041128
C           29.45248011716454        1.16524839144108        0.32470298669808
C           28.78872096930058        2.37015302533629        0.70770742132316
C           29.75782551020872        3.28485320985738        0.95569752785143
C           31.00629539097141        2.63230384146301        0.71935638978810
N           30.81263051952359        1.32738989695175        0.34287676845938
C           32.23753162691416        3.27871198942879        0.82812274172245
C           32.25722802979173        4.64146947613072        1.19814817184382
C           32.27924389392633        5.81103649818062        1.51996508339295
C           32.30785899774725        7.17364634381521        1.89640931537925
C           31.13429207009290        7.86092078643787        2.22717722747742
C           31.21810749766597        9.19300438310227        2.59145671223617
N           32.36709476725487        9.86205502127893        2.64341062072421
C           33.48710989942383        9.21590073407033        2.32956719405533
C           33.51219490020063        7.88466549465842        1.95366875171626
C           33.45257019511330        2.63747996916817        0.58332450057383
C           34.72013283598460        3.29523985970997        0.67216618920087
C           35.66305084778868        2.35962885553334        0.40851268903330
C           34.96595843051872        1.13443881376392        0.16278272201391
N           33.60695162298527        1.31815308186805        0.25991198296503
H           36.68294088652972       -0.07009510403936       -0.11427633481256
H           36.68339844502226       -2.61448410312126       -0.58443098397437
H           34.75579349021584       -4.46719722205925       -1.01087044245998
H           29.96480132696594       -7.39669884839007       -2.09983505297016
H           30.01629603958247       -9.80573141472172       -2.72282484085434
H           34.11009454668441       -9.96437579400741       -2.39121398756396
H           34.24625668963145       -7.56237045332679       -1.75423081621230
H           29.55381351020280       -4.34620659787480       -1.28363235372649
H           27.66303552184233       -2.46616584798763       -0.82684846382459
H           27.71886134853481        2.48583217718493        0.77155530696080
H           29.65295919625913        4.31201795150960        1.26572380060037
H           30.17727790290797        7.35413800870398        2.19823968727579
H           30.32370725250503        9.75060761538288        2.85410329843500
H           34.40655226451564        9.79187831885906        2.38214175457611
H           34.44736293857837        7.39688333845229        1.70638211458026
H           34.85141246440752        4.33894947058763        0.90870222857246
H           36.73563960298738        2.46768440778613        0.38242193474487
C           18.43214810059596        0.02188743394177       -0.03580890446266
C           19.65624586987898        0.02150303733948       -0.04339696684472
C           20.99944456813735        0.02261467568794       -0.04998222532666
C           22.22971091447471        0.02587547590692       -0.05227651130939
C           23.56810507733351        0.02618259134227       -0.04874835292518
C           24.79839676266885        0.02590276470109       -0.04729658111384
C           26.14159788796480        0.02088042201886       -0.04547372028693
C           27.36567494364164        0.01522596076480       -0.04238190891308
