179
 energy: -307.003296082196 gnorm: 0.000394782911 xtb: 6.5.1 (b24c23e)
Co          26.35667837361476       -0.01656634162389        0.04799516526131
C           22.98639152325826       -0.04527812571518        0.18650604118732
C           23.63597573578129       -1.20662559502489       -0.17397507935461
C           22.96504810007635       -2.42742787768372       -0.50262648028337
C           23.92326510236461       -3.37519678040276       -0.62854338404874
C           25.17913132125941       -2.73274070202661       -0.37115500126229
N           24.99502640272477       -1.39270203710198       -0.14326022383428
C           26.37346908650884       -3.41489711826892       -0.18250939731567
C           27.55425720136630       -2.75859656650519        0.12707393883214
C           28.80346372369848       -3.41946603920102        0.35865448357726
C           29.74882807578741       -2.45285176646301        0.44010368056396
N           27.73203936405576       -1.39343836348132        0.10160943819394
C           29.07799724106687       -1.20672100968960        0.24273761790765
C           29.75006782316913        0.00322173272206        0.04642383848324
C           29.06345062928492        1.19973209174524       -0.18144978008964
C           29.71169164977781        2.43867354198920       -0.47367575969614
C           28.74828396190896        3.39143521443044       -0.46858607705845
C           27.51701544686774        2.73178424701984       -0.15264135748992
C           26.33220266705841        3.39077553948243        0.13650748155863
C           26.31709180267269        4.87151611004967        0.16558072747219
C           25.47207002657343        5.58739701846428       -0.68365753437327
C           25.46023248768302        6.97372958771556       -0.65452750348691
C           26.28491632781232        7.66087246973936        0.22592074779625
C           27.12519310354195        6.95566962129213        1.07678683586552
C           27.14479424660901        5.56953523462592        1.04627016953601
C           25.15998186976904        2.69965109834452        0.41706218296023
C           23.92829078640201        3.32410266149261        0.80178663829655
C           22.98644119973923        2.35156322795393        0.82421573365565
C           23.64483005802640        1.13475414879162        0.45769244009408
N           24.98798249626177        1.34774699571169        0.27053192307816
N           27.71568499494039        1.37317185145377       -0.04623826971629
C           26.37920153535058       -4.89445714649995       -0.29497368426489
C           26.16137137309363       -5.50666354763319       -1.52903770659844
C           26.17063773481594       -6.88956505535665       -1.63480695274792
C           26.39110842473839       -7.67416690097479       -0.51100158901032
C           26.60403955338064       -7.07081466414540        0.72094326627644
C           26.60074696577293       -5.68814854988329        0.83028228620398
H           21.90450941186374       -0.05763983227654        0.24741777556638
H           21.89620340662785       -2.52850331884417       -0.60469713264816
H           23.80342345198068       -4.42349655272373       -0.84920577354604
H           28.93175665323754       -4.48722629334937        0.42960320670640
H           30.81058332681104       -2.55849504054503        0.59449536086590
H           30.76885363731751        2.54853182653839       -0.65445170783371
H           28.85109125903212        4.44784148695763       -0.65592831076957
H           24.83571842951441        5.05244386991800       -1.37984520762432
H           24.80420677865858        7.52025757007467       -1.32297744542403
H           26.27242313937328        8.74465676233220        0.24932358636938
H           27.76829867895563        7.48751926344981        1.76920290955431
H           27.79179636771893        5.01970301393953        1.72069734248687
H           23.81353551712365        4.37283434854827        1.02323689486872
H           21.93592001755760        2.43250435813767        1.05419141107978
H           25.99866170887322       -4.89391047131917       -2.40866663872382
H           26.00583341567905       -7.35638083932809       -2.59956952962090
H           26.39652644094907       -8.75499670376337       -0.59511896508125
H           26.77285452710520       -7.67963260797757        1.60225414250367
H           26.75592745084825       -5.21767651040895        1.79477377204357
Co          58.26128264142509        0.05075381076829        0.06154660510531
C           61.63127294939920        0.06539639075968        0.21266328799855
C           60.98568423079087        1.24334887139590       -0.09754855717891
C           61.66081002269063        2.47573191742739       -0.36933648233909
C           60.70510116591382        3.43000572078894       -0.46010071328460
C           59.44658405163143        2.77977721895555       -0.23742901005522
N           59.62688001783501        1.43087234939195       -0.06571838901204
C           58.25265089299569        3.45616407455235       -0.02675482582775
C           57.06950496666816        2.79034385134530        0.25209069319912
C           55.82135423268559        3.44402115296605        0.50838810079743
C           54.87411284116379        2.47679757537035        0.55128751758243
N           56.88903213738442        1.42766020622855        0.17173065043708
C           55.54258561667649        1.23819595925291        0.30465758149433
C           54.86774641859645        0.03883917738063        0.05920550527422
C           55.55130762598630       -1.14841147167186       -0.22049233430567
C           54.89972954755349       -2.37164330163978       -0.56658488372061
C           55.86106810605170       -3.32566716842903       -0.60657057643165
C           57.09431497026454       -2.68353527030201       -0.26347576499004
C           58.27800325951261       -3.35744179914241       -0.00634168149967
C           58.29177066435933       -4.83800936084820       -0.04664836444457
C           59.13524354802947       -5.51332114221240       -0.92999836120932
C           59.14850264849434       -6.89949279383398       -0.96454378798972
C           58.32666788431221       -7.62712041150941       -0.11446250900155
C           57.48746650927764       -6.96253003049873        0.76949924029768
C           57.46647154298984       -5.57643912489556        0.80270283667021
C           59.45136523593039       -2.68249155249734        0.30699570627680
C           60.68086127104752       -3.32714657969464        0.66445607499622
C           61.62445306011819       -2.35871311060449        0.73595255362153
C           60.96942533698964       -1.12453555371558        0.42583549412876
N           59.62639697692433       -1.32558263625336        0.22490728095880
N           56.89880911967172       -1.33064472943574       -0.09524590685872
C           58.25025313650489        4.93899402843678       -0.08044669885762
C           58.47725955773737        5.59862259633232       -1.28817907252882
C           58.47108289932603        6.98459412121994       -1.33988546997514
C           58.24448320214490        7.72509831165262       -0.18773249699521
C           58.02251737581496        7.07444804524165        1.01827712317002
C           58.02285185893992        5.68855665474227        1.07354624608331
H           62.71291968420065        0.07247907579101        0.27838924797381
H           62.73040917488414        2.57879077469642       -0.46098709306403
H           60.82823491681262        4.48655477717390       -0.63479222314248
H           55.69494076997746        4.50837199145248        0.62136905535682
H           53.81247753109543        2.57835704875341        0.70916468547182
H           53.84199799551872       -2.47094240883553       -0.75015227691291
H           55.75565365938676       -4.37237601017979       -0.84101920994436
H           59.76961534685563       -4.94624104831852       -1.60215676993663
H           59.80350419765723       -7.41409626881555       -1.65884006092187
H           58.34060286457195       -8.71082531074310       -0.14041650416119
H           56.84666146475484       -7.52631465063055        1.43837027940628
H           56.82065648783919       -5.05886775775216        1.50328334195557
H           60.79295026819559       -4.38547776877591        0.83594069827594
H           62.67418377548125       -2.45265564590946        0.96456950805593
H           58.64469276898903        5.02038872113144       -2.19001217472328
H           58.64309788648423        7.48841055737748       -2.28457073697259
H           58.24140910075869        8.80839428553866       -0.22957507464584
H           57.84896123056321        7.64869031134773        1.92160124239572
H           57.86085729105771        5.18114780189323        2.01798631132917
C           34.94871397780393        0.04130064067634        0.06072906265419
C           33.71893154328085        0.03415344579242        0.06060948214884
C           32.37651639626036        0.02537420600628        0.05812036512676
C           31.15157449897064        0.01398482387486        0.05414370442136
C           36.29086624025351        0.04325824656886        0.06179626812394
C           37.51622903909757        0.04389002732549        0.06275216206840
C           50.89886179448236        0.01735673475581        0.07682443711566
C           49.66907189803401        0.01030447562534        0.07709548680546
C           48.32693227146439        0.00810612942715        0.07765382993822
C           47.10157946625751        0.00671557379746        0.07532504558045
C           52.24128362514949        0.02254997581141        0.07434382053241
C           53.46623263362171        0.03085793846077        0.06785025821659
Co          42.30895986191893        0.02609856951921        0.02755401495260
C           38.91625930658395        0.03991375288730        0.06327146147758
C           39.59542489607159       -1.14919971162426        0.35146434641079
C           38.94391876639067       -2.37356455108211        0.69187746189133
C           39.89644704932885       -3.33837564754300        0.67207232218372
C           41.12380687676335       -2.69814340560808        0.30806171909245
N           40.93794711332271       -1.34043134088332        0.18845337515776
C           42.29404070096287       -3.37093861249708       -0.01707647873679
C           43.47224412028223       -2.69541260493971       -0.30686343975754
C           44.69433655399276       -3.32758417619087       -0.70061184384610
C           45.65591639981666       -2.37155052532367       -0.67007320135485
N           43.67197576083676       -1.34903686062367       -0.11049281331150
C           45.01480338944116       -1.16005871625906       -0.27039636693408
C           45.70157164582950        0.01031769411994        0.07252868371906
C           45.02143765786060        1.18642642801303        0.40776402862345
C           45.67210603383422        2.39547445468022        0.80059648887691
C           44.71971604073487        3.36042491635360        0.81828419663701
C           43.49330091186323        2.73618268723610        0.42441762232426
C           42.32379514491156        3.42213121389054        0.12473132763116
C           42.33317473486934        4.90201772870570        0.14603698745327
C           41.46484536001891        5.60349756392875        0.98404977844335
C           41.47795301616227        6.98984184045705        1.00395042373876
C           42.35098643390671        7.69185727681105        0.18388014456794
C           43.21529059584515        7.00133697126964       -0.65497482117287
C           43.21065888786793        5.61494411015885       -0.67267513084922
C           41.14634606995318        2.75924161676924       -0.19606502486774
C           39.92525456036059        3.40715253295642       -0.56669857672283
C           38.96382541224797        2.45059030884642       -0.57919796067666
C           39.60401442344507        1.22345277528069       -0.22860996752734
N           40.94636139517097        1.40579543673954       -0.05696947158031
N           43.67937161998077        1.38458825774098        0.24908054755438
C           42.28503808375700       -4.85053000446609       -0.05825869328304
C           41.41487106352415       -5.52819733674737       -0.91377296904143
C           41.41198317036446       -6.91409285973140       -0.95585994376924
C           42.27009710726551       -7.63924641986038       -0.14022178276315
C           43.13529978448420       -6.97242049889965        0.71668862008050
C           43.14723739055172       -5.58647801792310        0.75611137729460
H           37.89139385923882       -2.46852721696051        0.90512394582983
H           39.78739619274358       -4.39049001436167        0.87903039675127
H           44.79429402904986       -4.36851632871181       -0.96176536455189
H           46.70778384421317       -2.46532428617574       -0.88716725165643
H           46.72405139978758        2.48123091640288        1.02046859244011
H           44.82855293632228        4.40290266146585        1.06938610765251
H           40.79186179635198        5.05646169928536        1.63487067756576
H           40.80384774532891        7.52451724036417        1.66383185156949
H           42.35787723002134        8.77580921388935        0.19850433724047
H           43.89638678128017        7.54509243521558       -1.30011401297885
H           43.87695583237726        5.07725487232806       -1.33800335625586
H           39.82562216634362        4.45804544843335       -0.78448748093531
H           37.91259585606552        2.55321903643485       -0.79537715888402
H           40.75308465701483       -4.96286682961255       -1.56044958089558
H           40.73701657235597       -7.43025567627516       -1.62952773025254
H           42.26457177681601       -8.72282964647390       -0.17238536968202
H           43.80452475238010       -7.53439850704454        1.35866427356357
H           43.81462287188501       -5.06715509130581        1.43481935546302
