130
 energy: -257.892373226807 gnorm: 0.000359625363 xtb: 6.5.1 (b24c23e)
Zn          18.26739913375506        0.03156462421632        0.04794636535388
C           14.85519143442789        0.10606168041945        0.08976067563225
C           15.48342623735973       -0.19332067300824        1.29234954019781
C           14.80810360710373       -0.50603604266661        2.52098807794083
C           15.76575910744542       -0.72692667529561        3.45539164169102
C           17.03905482687669       -0.53678714312116        2.81115877196614
N           16.83265119132513       -0.22900696668516        1.49879364785713
C           18.29137887637219       -0.65362321356928        3.42534126127397
C           18.31062009777569       -0.97280752567921        4.87348786216199
C           17.71860822313663       -0.11164615106319        5.80105363675524
C           17.73952927220094       -0.41134992613841        7.15325232382968
C           18.35360388037676       -1.58287641107331        7.56582084063043
S           18.39353960383885       -1.96407718557507        9.27575910502500
O           18.25906372294831       -0.77554162653895       10.06546146524190
O           17.00107085126464       -2.79643303578474        9.36586603151649
O           19.46866566832427       -2.86457060020333        9.57427123982858
C           18.95091656061877       -2.45622273285720        6.67115153837081
C           18.92764286353354       -2.14399920970494        5.32230358856551
C           19.53174435168739       -0.49866111367548        2.79414421298401
C           20.80408273477117       -0.52036900544107        3.46012241335956
C           21.75339931868043       -0.33153708325944        2.50908826577829
N           19.73262081396442       -0.28021988316230        1.45808767151518
C           21.07643926052659       -0.19344528861293        1.25431276546572
C           21.71611912643734       -0.02617144693361        0.00862699352947
C           21.05468528168966        0.15362240361628       -1.22408749321399
C           21.70681859064100        0.26036254220572       -2.49505646062275
C           20.74253628357926        0.47406508919490       -3.42566372156288
C           19.48611187734424        0.50106545956394       -2.73042319049288
N           19.71025748745672        0.28346281853546       -1.39779533090441
C           18.23807481265919        0.70105692444351       -3.33264104978229
C           18.23164760110114        1.00694939327092       -4.78408738686413
C           17.58164910373218        0.16019029900284       -5.68543144696473
C           17.56886547451794        0.44996341033592       -7.04003768837801
C           18.20962968298199        1.59612255964738       -7.48128608958435
S           18.18233803820520        1.98044084434586       -9.19193069320307
O           18.29098622941343        3.39468597895644       -9.40489299984742
O           19.60186515369151        1.31682842629947       -9.61709127041231
O           17.12557909943621        1.26678685880313       -9.84400052669335
C           18.86045488720842        2.45710740101269       -6.61210547770799
C           18.87100995200926        2.15483097473125       -5.26077783666579
C           16.99760022993054        0.64242549823902       -2.68689086171094
C           15.71850039834920        0.88728042776113       -3.30058871717289
C           14.77542471104689        0.71445732738368       -2.34168683287529
C           15.46623089658948        0.37571407654728       -1.12859589020204
N           16.81017205830672        0.34952662405952       -1.36829377057133
H           13.77004929461997        0.13063170529826        0.10330426096877
H           13.73713353808312       -0.55558403354702        2.63960255170969
H           15.62664483682996       -1.00440263934061        4.48796814919223
H           17.25630168354333        0.80723830770362        5.45977210608697
H           17.29382236234047        0.25474275192339        7.88129186544491
H           16.87820546212937       -3.14472908275507       10.25727339798167
H           19.42721106767827       -3.36050385756795        7.02863669941416
H           19.38009744116611       -2.81849017814827        4.60463707204747
H           20.95118989706967       -0.64381621633069        4.52089424964235
H           22.82023978510130       -0.27647754217693        2.64495259112330
H           22.76765259433056        0.16619609494212       -2.65480999988883
H           20.86843333027318        0.58546573009033       -4.49051931953102
H           17.09571720062324       -0.73763902375950       -5.32163701040467
H           17.06722543890484       -0.19929203116219       -7.74653360877728
H           19.91156962107722        1.69554105151335      -10.44884578048728
H           19.34177822990908        3.35057089276325       -6.98964948282601
H           19.36350576462813        2.82157830286066       -4.56248990847380
H           15.56657184902285        1.16658505116518       -4.33082584031721
H           13.70521462749116        0.81247585991775       -2.43388701774525
Zn          29.20617477512967        0.04720424104917       -0.03282376693850
C           32.61843010928887        0.13196768506777       -0.04411809849295
C           31.99019165758903        0.29775781311650       -1.27226932021243
C           32.66550396761220        0.46069445479276       -2.52956767117690
C           31.70784242998029        0.60051312107169       -3.47948461471184
C           30.43455869146689        0.53951079191843       -2.81053489873160
N           30.64096459052137        0.34094899578400       -1.47727097030436
C           29.18224515808065        0.65784833782519       -3.42444517075605
C           29.16303262842943        0.89597773984733       -4.88810354860852
C           29.75505160087701        2.03877927138827       -5.43213111035266
C           29.73396121057450        2.25963817462756       -6.79942122340088
C           29.11973435079963        1.32332365775456       -7.61539598697656
S           29.07917902660497        1.60076718596768       -9.34518636330436
O           29.21353112293889        2.99697065343901       -9.63997182874139
O           30.47145498293173        0.86057264223423       -9.73701850540058
O           28.00377339275894        0.87429213199939       -9.95480670919365
C           28.52251719071970        0.18128604826074       -7.10644179382714
C           28.54596373668595       -0.02670316704684       -5.73764836228923
C           27.94185889741092        0.56879217141185       -2.78067807174034
C           26.66952348210145        0.79446749032720       -3.40764369810343
C           25.72018166423462        0.61863943906532       -2.45414433225933
N           27.74095356936558        0.27838580151604       -1.45839996921181
C           26.39712657400793        0.28366028809549       -1.23703739023118
C           25.75743711522661       -0.02094803942565       -0.01764592298844
C           26.41886707518876       -0.30913351355322        1.19432380247479
C           25.76671361824051       -0.67930498755666        2.41485761950125
C           26.73099904155899       -0.82464794145262        3.35855535328944
C           27.98744822762000       -0.54291459069270        2.72243028505135
N           27.76330705200809       -0.25281501380528        1.40368167531789
C           29.23549918458403       -0.57961372607756        3.35588970458170
C           29.24207357552294       -0.83153297395343        4.81766210885824
C           29.89238770183174       -1.95118400906953        5.34244679885503
C           29.90540773807705       -2.18223238715088        6.70830385911708
C           29.26454069804988       -1.28020487649532        7.54170391689298
S           29.29121888619838       -1.55496981817961        9.27333060121658
O           29.18320625978893       -0.31941305881616        9.99375881731526
O           27.87092280197803       -2.32753929198263        9.42255199147151
O           30.34720002276680       -2.45968934553976        9.61626073843748
C           28.61342187252428       -0.15919851166324        7.05207716816242
C           28.60266557197415        0.05902472217762        5.68467021267993
C           30.47596734413269       -0.39538833500346        2.73418998600718
C           31.75502779585200       -0.39429889462535        3.39500876845733
C           32.69812187080781       -0.20053102422554        2.44014032383288
C           32.00736194790460       -0.06738369747441        1.18767640264647
N           30.66342515746645       -0.18046379520978        1.40067709204904
H           33.70356971473316        0.15984435277858       -0.04760905874618
H           33.73647008688994        0.45827490420979       -2.65811904706289
H           31.84693652140961        0.72384991858209       -4.54155791878086
H           30.21746018030070        2.76665315109342       -4.77567993226056
H           30.17962628900822        3.14750543125380       -7.23006077330757
H           30.59392451919837        0.86618025103473      -10.69408821112221
H           28.04613624434676       -0.52704297112042       -7.77255418015798
H           28.09356169163008       -0.91854304792694       -5.31973444899329
H           26.52242898376727        1.07147276246276       -4.43902612804170
H           24.65333063817830        0.71983760275077       -2.56013284482535
H           24.70585467330301       -0.82560083938854        2.52857165506516
H           26.60507403129190       -1.11446051885019        4.38924875744957
H           30.37835758406026       -2.65106620511541        4.67269088177834
H           30.40726999359932       -3.04642608998972        7.12497602559672
H           27.56036533917187       -2.28176203923204       10.33504687280629
H           28.13205107888152        0.53151758168441        7.73301254446394
H           28.10995325524846        0.93643951994547        5.28207499316371
H           31.90691808539396       -0.51523336493567        4.45556703513089
H           33.76830999259707       -0.14326653586577        2.56209793831749
C           23.12757679198315       -0.03463334588800       -0.00386398071446
C           24.34597929648421       -0.03349122366853       -0.00918025420612
