272
 energy: -433.749033775761 gnorm: 0.000554463741 xtb: 6.5.1 (b24c23e)
C           55.78054119286425        0.33350713102881       -0.05471520617952
C           56.39047195932117        0.49774469599408       -1.29196618327189
C           55.73951719905565        0.65453717891475       -2.54698832651223
C           56.70321125485118        0.75938374433943       -3.51095426286001
C           57.97419931107550        0.68382210441241       -2.87405154496080
N           57.73424685015628        0.51820263313705       -1.53892071474502
C           59.23829028930976        0.74926458091313       -3.47283425732089
C           59.27228247468183        0.96965421840421       -4.93710280487940
C           59.89868743591160        0.04856123183957       -5.77911978688435
C           59.92385094332212        0.23304459250058       -7.15081577758911
C           59.31822399528942        1.35751267747412       -7.71880681966682
N           59.35767813162767        1.61871620550897       -9.08104692978601
C           59.52073767577804        0.51629978794661      -10.01951107388730
C           58.70395784197740        2.29331598319690       -6.87767484216642
C           58.67684756930245        2.09711898175543       -5.50978209471477
C           60.45322115095428        0.62229417136897       -2.79293320184269
C           61.74857624021284        0.81401265496172       -3.41854733310069
C           62.67147044528593        0.62419071436583       -2.45267451786607
N           60.61163185285739        0.33730466242497       -1.47069688322723
C           61.94098314881017        0.31617604945631       -1.23972501842482
C           62.58000580431016        0.04700020171760       -0.01193404243566
C           61.93727616265782       -0.19504893989919        1.21801173514641
C           62.57300835881591       -0.46051507453934        2.45832477034052
C           61.60327229668264       -0.58910244297098        3.41406750053191
C           60.34084877993098       -0.42094510514876        2.78263674479736
N           60.59436016202601       -0.18837125531647        1.45596496257079
C           59.08128353283253       -0.43909251918241        3.39366299768867
C           59.05136093796411       -0.69886851668872        4.85208298912549
C           58.51719338643330        0.24419516705727        5.73197517016138
C           58.49735828761189        0.01909172634914        7.09794968863670
C           59.01512116506542       -1.16921729556667        7.62086611649814
N           58.97347684988748       -1.46981714076541        8.97496247239282
C           58.91698076699484       -0.38861940033547        9.94985223058941
C           59.53716775000409       -2.12542222684719        6.74130088712049
C           59.55985783762134       -1.88905642740533        5.37970446404027
C           57.86793509829243       -0.22914200376521        2.72978582858681
C           56.56331553183949       -0.31662794786814        3.36689492885213
C           55.64957152198019       -0.09484150636583        2.40028489387794
C           56.39423005520883        0.11716255742489        1.17206520798105
N           57.72639193008821        0.03098188510332        1.40829787379820
H           54.69540035141536        0.35793157199091       -0.06029257763965
H           54.66988116326800        0.67250735971990       -2.68346102053685
H           56.55053932105583        0.86654069013008       -4.57268456799578
H           58.45800650461673        0.41339216998254       -0.83584223409698
H           60.35554301559050       -0.83757330211201       -5.35200001880720
H           60.41634577966412       -0.50294251857031       -7.77443102802182
H           58.63881281077099        2.26952971099283       -9.37404666603836
H           58.79052099441177       -0.28036500495557       -9.83642368883401
H           59.38135164855744        0.90825585190976      -11.02703327902256
H           60.52785053727044        0.10476562695201       -9.94159196254372
H           58.24752793323016        3.17858718837059       -7.30798896194723
H           58.20766655446484        2.83739739313896       -4.87081107312121
H           61.90894985293490        1.08407392792855       -4.44976109256597
H           63.74404032284502        0.69741110856638       -2.52793115291274
H           63.63829998717308       -0.54131896732332        2.59685669599546
H           61.74976623915979       -0.77225792499979        4.46598893367969
H           59.87732531438134       -0.01893854458120        0.75821487026670
H           58.13048609376172        1.17877513642963        5.34025728076369
H           58.07794574517082        0.77353399870425        7.75221780009450
H           59.63905178725331       -2.18777456293171        9.23523046611527
H           57.94558239857032        0.10539871901730        9.90452449194565
H           59.70647554797456        0.35180664450054        9.77704461265810
H           59.04122774755162       -0.82288756265946       10.94186661908456
H           59.92549227666019       -3.05822409135177        7.13663700091894
H           59.95775039192328       -2.64400740508309        4.71029598684396
H           56.39323996798060       -0.53801309755782        4.40830970088472
H           54.57350544701870       -0.08194787039705        2.47779524158289
C           95.28026548652720        0.25724665427596       -0.24039505622517
C           94.71199742558692        0.48653447355264        1.00640306263434
C           95.40360629613977        0.68719380424369        2.23302763725111
C           94.47170832355458        0.85574642846127        3.21914490307634
C           93.18096740246156        0.77671053517865        2.62410279853842
N           93.37702446515350        0.54473540500716        1.29176317260300
C           91.93648860530692        0.89727791455337        3.25478946132510
C           91.94815698456655        1.18968125655351        4.70656885300757
C           91.32294439327741        0.32646092306880        5.60890696136737
C           91.33664342331510        0.57908173608992        6.96975048991836
C           91.98093280082169        1.71609669761746        7.46601228096697
N           91.97919526503919        2.04719402770037        8.81298228593438
C           91.80279385167725        1.00205804836864        9.81225770317405
C           92.59612020293187        2.59329270557028        6.56432231911786
C           92.58439121659544        2.32891821477186        5.20775635004085
C           90.70035490217096        0.75965494504417        2.61655116415976
C           89.42784228848396        1.01106102432530        3.26719418751191
C           88.47340067306379        0.77843293382253        2.34234057834282
N           90.49747912405786        0.40217855038291        1.31793382800829
C           89.16152658035665        0.38627035741157        1.12910416893702
C           88.48029834240786        0.04697404856808       -0.05831328875507
C           89.08104185593399       -0.25803137754620       -1.29558430018831
C           88.40393535593837       -0.57727652950905       -2.50091781578865
C           89.34096071591654       -0.74962034975551       -3.48200811164802
C           90.62412871917353       -0.55810981435630       -2.90089878080905
N           90.41521311491363       -0.26546648267226       -1.57826211323482
C           91.86318111799565       -0.61109364164076       -3.55043374891241
C           91.84566887071321       -0.92940223874475       -4.99738414639751
C           92.36126070501723       -0.02709726607976       -5.92961188151560
C           92.33800526410693       -0.30592376268524       -7.28555909453987
C           91.79425690668812       -1.50862270917736       -7.74538333882856
N           91.79259414137499       -1.86311006200489       -9.08701203921840
C           91.83510710433725       -0.82255171500884      -10.10579949162459
C           91.29062343222544       -2.42419234531912       -6.81334762875473
C           91.31126184312491       -2.13438478107843       -5.46207299178479
C           93.09898454602745       -0.38706652815142       -2.93378258581798
C           94.38174885075682       -0.51900685182178       -3.60666171825930
C           95.32821371391613       -0.27265757292480       -2.67825267930325
C           94.62532687244521        0.00032167499855       -1.43756927975483
N           93.28519339510102       -0.07511662617179       -1.62930375403365
H           96.36531104547825        0.26256585103422       -0.26893186712403
H           96.47704330440895        0.68982605458777        2.33703831911707
H           94.65855726860671        1.00828986375697        4.26980661831660
H           92.63026307228017        0.42156314813457        0.61624047492002
H           90.83554320630391       -0.56865498745259        5.23795617391495
H           90.84371954039308       -0.11337381326706        7.64104392104185
H           92.71900052235728        2.69419253800401        9.05803497333008
H           92.50995279171312        0.17793590082750        9.66318268000972
H           91.96711378892361        1.44443449857515       10.79483554129744
H           90.78460016914275        0.61314155176463        9.77076868604318
H           93.08328076368157        3.48763255563651        6.93857931363258
H           93.05415201066859        3.02525210344696        4.52151444506318
H           89.30309996402578        1.34615283985473        4.28411355479866
H           87.40521633042886        0.87692100147541        2.44366039659395
H           87.33450418002060       -0.66043803528089       -2.60048683606722
H           89.15894670148450       -0.97790839343489       -4.51945133016739
H           91.15549902491020       -0.06860092494573       -0.91270657399767
H           92.76785541057673        0.91825495224371       -5.58694792613604
H           92.74408807162490        0.41811573356139       -7.98125321373121
H           91.11030998641745       -2.58113429631696       -9.29932603031873
H           92.81220598612450       -0.33783726409043      -10.10452385467770
H           91.05758625550880       -0.06723309268237       -9.94358961200164
H           91.68169365957758       -1.29494040974863      -11.07608153366311
H           90.88248966315157       -3.36796325281744       -7.15965900669007
H           90.92783324649859       -2.85883910666830       -4.75177867180823
H           94.51611249085794       -0.78491065348355       -4.64286100827010
H           96.40142878050922       -0.27929662843744       -2.78903518691060
C           63.98903601471603        0.03209049610257        0.00562433315516
C           65.20706163809439        0.02202725541594        0.02120446923094
C           74.92184575154447       -0.09424981220766        0.15920917019205
C           76.14074782457750       -0.12199079009147        0.16342046293669
C           85.85444652031352       -0.02029815976449        0.00318320162263
C           87.07185968710138        0.01739722010171       -0.02396094517049
C           66.61496950526245        0.02222512901082        0.04050065654778
C           67.23103312580572        0.16552252985189        1.29924419490125
C           66.57759603628060        0.31699697913649        2.54810043838509
C           67.53442762184993        0.34102179866455        3.52612999931836
C           68.80382352449548        0.21918253224127        2.90002207055910
N           68.57034183880808        0.12641654591582        1.55364593532120
C           70.04978758970596        0.13072671936497        3.53404720606932
C           70.03632432486118        0.20114270875272        5.01664479180083
C           70.46294342067658       -0.88346030010493        5.78694232906846
C           70.43913837494054       -0.82190129087117        7.16765665211973
C           69.99230631355529        0.33303120644610        7.82077685136238
N           70.04038867326356        0.36866038777338        9.20777849259118
C           69.16439023430144        1.27911969974506        9.93311103748655
C           69.57914813201992        1.42618064989837        7.05449160068391
C           69.59498803114171        1.35144807606101        5.67167912135589
C           71.28097287654639       -0.01629353367525        2.89381050487207
C           72.54841661450190       -0.08361624397256        3.59703975382262
C           73.50674485200369       -0.15378902075971        2.65015273894059
N           71.49227585910242       -0.04557654415001        1.54788204812754
C           72.82814938910030       -0.11244081602095        1.37188146997386
C           73.51488127294371       -0.07956858696959        0.14020581983573
C           72.89873702792522       -0.01305686637967       -1.12675740222833
C           73.54731657654190        0.13787503709080       -2.37753160326871
C           72.58938173718853        0.12395141725100       -3.35539959740989
C           71.32580560071510       -0.04137316045903       -2.72839008013073
N           71.56132308194923       -0.09691429365811       -1.38014674276225
C           70.07740731028018       -0.14274510376239       -3.35846806409775
C           70.08584734353703       -0.18924194068846       -4.83815809688085
C           69.36587008371582        0.74506828241454       -5.58608693877002
C           69.36623397032825        0.70921597238285       -6.96972931010353
C           70.07995601249989       -0.28436593721445       -7.64610516833049
N           70.14824478376929       -0.34271147567037       -9.03049837926540
C           69.07569859145995        0.23767167708336       -9.82778504149568
C           70.80900141822111       -1.21996960949138       -6.90180090781433
C           70.81359390361720       -1.16872997827050       -5.52092379432023
C           68.84343002241528       -0.20379326555318       -2.70644113066749
C           67.58168659693885       -0.43055269957696       -3.38699709418626
C           66.62172128414633       -0.38185848652814       -2.43946364626014
C           67.29727208861722       -0.13063094316437       -1.18364188207323
N           68.63156139851870       -0.05483796735610       -1.36974344058677
H           65.51102782370744        0.39502109942718        2.67800112127365
H           67.37398822341569        0.42446570046765        4.58859561568405
H           69.29291800268946        0.02822315513068        0.84819846363346
H           70.79615862437427       -1.79042104955068        5.29450426842456
H           70.76637179212339       -1.67385989064289        7.75438825218363
H           70.05687137128848       -0.55673840981740        9.61967149662076
H           68.11825483779911        1.16167050244036        9.62765906352975
H           69.25621111004344        1.05883224190739       10.99670677281477
H           69.47415504447622        2.31089982363997        9.76289028205982
H           69.24702809949841        2.34055358859717        7.53070637552287
H           69.27949302948529        2.20960020687126        5.08807627415658
H           72.67032973879299       -0.06454915178908        4.66783593051169
H           74.57381133207704       -0.22089696871669        2.78163461440546
H           74.60928625655033        0.26097136913565       -2.50839633994094
H           72.74396690414275        0.23739082367859       -4.41591336770192
H           70.84076648613336       -0.18290727528777       -0.67142207555914
H           68.81517266236405        1.52627812387681       -5.07353699152974
H           68.81079340600324        1.45980370656181       -7.51853082328078
H           70.42798115578719       -1.25564278399712       -9.36888167910831
H           69.09836436585111        1.32539683407411       -9.74974870446846
H           69.24121815916597       -0.04070114843205      -10.86858593126191
H           68.09293686271563       -0.12638502922418       -9.50705175900182
H           71.36980270144082       -1.99212011571498       -7.41803909638147
H           71.36572084741505       -1.91381960584146       -4.95842452626873
H           67.46746872265615       -0.62529403167806       -4.44110320262759
H           65.55903367711868       -0.52012605225690       -2.55423021214812
C           77.54771302396084       -0.13299509328163        0.15295090663240
C           78.20220204284742        0.01295403707872        1.39238688542569
C           77.58820324928709        0.13515316288347        2.66406434744071
C           78.57527397871118        0.15597649130585        3.61112361143656
C           79.82581725875561        0.06441686048351        2.94291886717495
N           79.54972360934620       -0.01183026099319        1.60320354652931
C           81.09278635082046       -0.00717196411628        3.53644416720375
C           81.12530506360564        0.03652891376036        5.01962305306411
C           81.61033677780217       -1.04835780494984        5.75447301414504
C           81.62844742574927       -1.01421752476269        7.13614337272026
C           81.16581186939793        0.11281298610366        7.82618366581239
N           81.25430336244725        0.12297645265838        9.21117900270289
C           80.36975777099710        0.98774240727908        9.98087973364585
C           80.69567671678186        1.20725220254926        7.09518453874534
C           80.67046839093607        1.15993962861054        5.71137244454730
C           82.30712298838492       -0.11077874497537        2.85566840739517
C           83.59887955419677       -0.14888579960307        3.51669030931278
C           84.52825140082786       -0.17165235307198        2.53908601414076
N           82.47478446139544       -0.11364946667320        1.50412041079525
C           83.80630515412311       -0.13306944480562        1.28420070583357
C           84.44753394280893       -0.06961810595471        0.03075676897489
C           83.78978107140337       -0.04233019933281       -1.21573350925422
C           84.39364612278047        0.10865826079405       -2.48871425339410
C           83.40673342840178        0.04501399043868       -3.43551817603473
C           82.16996445275264       -0.15064041593064       -2.76575003627419
N           82.44902030239571       -0.17649742268158       -1.42522122935946
C           80.90520400407132       -0.29947896872915       -3.35238485620249
C           80.86696055667365       -0.36685194695746       -4.83083419830235
C           80.09920574552997        0.53867393416749       -5.56654576438304
C           80.06019115307467        0.48790051814757       -6.94918868042819
C           80.78181389791024       -0.49254529548794       -7.63628134939185
N           80.81356143106736       -0.56238111848457       -9.02136355218605
C           79.70503807062234       -0.01797366128485       -9.79441689596616
C           81.55697771443843       -1.40046181250033       -6.90427331784462
C           81.60065825162124       -1.33396510449644       -5.52471243441931
C           79.69623689048630       -0.38145970570138       -2.65835932026471
C           78.41994661621733       -0.65240008850793       -3.29258467052182
C           77.48965631442159       -0.60047110744063       -2.31583877379979
C           78.19778941811515       -0.30473683598233       -1.08841096606115
N           79.52299556370477       -0.20779769730612       -1.31804206353251
H           76.52566616017432        0.18952445959329        2.83033810930887
H           78.44732891204777        0.21749037194040        4.67941823352928
H           80.25045449073171       -0.09065939899030        0.87374341546463
H           81.95572143335805       -1.93475911737916        5.23380003099994
H           82.00073125607565       -1.86639909353209        7.69503295057071
H           81.31722421153678       -0.80872653491538        9.60390024631768
H           79.32022923683628        0.84444596347902        9.69908411497359
H           80.49597238445753        0.74499255248622       11.03603174201716
H           80.64264219811923        2.03272089389940        9.82849337912175
H           80.35098518903077        2.10136326356462        7.60006383491281
H           80.31134597745545        2.01934723778277        5.15551068749425
H           83.75473547327502       -0.14348191647389        4.58320386383383
H           85.60072515435677       -0.21028988283251        2.63540666265133
H           85.44668608746225        0.26375473279949       -2.65490633146123
H           83.52431186642524        0.14390246370158       -4.50224382786637
H           81.75435203968732       -0.27290349187703       -0.69231316502374
H           79.54242339670634        1.31012314615373       -5.04579761111443
H           79.46862165118792        1.21717051958700       -7.48895054673795
H           81.10935418181961       -1.47023990069726       -9.35962808611676
H           79.70185823252294        1.07075747176262       -9.72788759402185
H           79.84916124321170       -0.30315743765351      -10.83653268916096
H           78.74108993109166       -0.40344728341528       -9.44308891813202
H           82.12348702198369       -2.16262304010423       -7.42909664138784
H           82.18959434260807       -2.05731749786328       -4.97119155120794
H           78.27705064488241       -0.87609639724742       -4.33743291408252
H           76.42831903854675       -0.76991254793001       -2.39268203815809
