189
 energy: -324.966957257731 gnorm: 0.000721995025 xtb: 6.5.1 (b24c23e)
Co          22.80673490123161        0.23523152610160        0.12563522422428
C           19.43601114782987        0.15058183757702        0.11527324960686
C           20.12159363775662       -1.02589171746947        0.33092591070556
C           19.49112823970993       -2.28477085148941        0.58864545827767
C           20.46695586344999       -3.22276475297810        0.54952182005952
C           21.69066322227572       -2.53664625001220        0.25236526507377
N           21.47763317609326       -1.18276167822391        0.19028654425100
C           22.88877938394259       -3.16794223412871       -0.05422663359806
C           22.93070004636542       -4.64555657901104       -0.13744106966954
C           22.15384392634090       -5.32531121238306       -0.99656251824693
C           22.16927269543805       -6.82710483703537       -1.09499882532087
N           23.32335677062382       -7.39645430142863       -0.39738122408360
C           23.98125908132502       -6.70011870603280        0.57689995886948
C           23.85209711934593       -5.36790572418844        0.72446762249622
C           24.05293219391773       -2.44930852733274       -0.28625934775904
C           25.30245733987069       -3.04092545646203       -0.65951024894384
C           26.23282024160521       -2.05730646772150       -0.60534044432435
N           24.20640722146820       -1.09823745341238       -0.07686457609761
C           25.54747621846498       -0.86779006188136       -0.20976202213292
C           26.19660171647476        0.31931024910696        0.13636058570742
C           25.48756521730352        1.47355634589221        0.47576170106311
C           26.11085811763452        2.69607482512104        0.87336634517153
C           25.13267696765057        3.63254915648081        0.92056741989418
C           23.91591450649207        2.97915524964668        0.54210616166545
N           24.13750404506789        1.63738273833637        0.33428391086369
C           22.71745539722827        3.63818205687009        0.30772048075533
C           22.68205072119176        5.11560776146693        0.39714421498725
C           21.86748758270330        5.74854847845702        1.25719244645104
C           21.80249373524468        7.24834623582019        1.36420614453152
N           22.92406472409877        7.88276615013353        0.66968067636671
C           23.62139276342566        7.22717578640372       -0.30534241316696
C           23.56572921200713        5.89045295158883       -0.45849781294202
C           21.55392867257982        2.94755348135429       -0.00439713259810
C           20.29897094893191        3.57191349670943       -0.30756860349220
C           19.37193417737706        2.58608770413414       -0.35507890448094
C           20.06326732568571        1.35998203096885       -0.09538365388997
N           21.40891241290401        1.58462437385692        0.05387006617230
H           18.35263235407995        0.12348534488110        0.11163596734334
H           18.43541771565271       -2.41443010076050        0.76763355140882
H           20.37927094493944       -4.28618577180862        0.70337559215660
H           21.46393556430176       -4.82064476742856       -1.66275836287517
H           22.21891965164749       -7.13736178917375       -2.14821502690503
H           21.23480494806457       -7.24579451783115       -0.67771684548299
H           23.30776333186705       -8.40173729749218       -0.31204285187669
H           24.66923269043327       -7.29086858661398        1.17315116872071
H           24.41433229382251       -4.82926439036371        1.47386549115491
H           25.43937420800207       -4.07751750780383       -0.92164957133422
H           27.29107533711525       -2.11690728748723       -0.80300054547806
H           27.16375304453708        2.80822095856595        1.07681807956865
H           25.21693358220130        4.67515980391150        1.18110166373575
H           21.20344313557499        5.20403702068979        1.91828447350576
H           21.83575837976704        7.55476579991852        2.41924789437276
H           20.84677266102222        7.61872998286156        0.94945150061820
H           22.85380350190859        8.88603547227554        0.58844958891708
H           24.27724994759603        7.85710657031438       -0.89768126570795
H           24.15829317645578        5.38666687870092       -1.20876350728163
H           20.15875958332347        4.62991314507348       -0.45985469379531
H           18.31223712056525        2.66284010395621       -0.54085026726752
Co          59.76954561897725        0.13404823516596        0.12037985303737
C           63.13560915589854        0.30893407880632        0.15085400254567
C           62.41738743006701        1.39918624230902        0.59405177189155
C           63.01128477110956        2.59625911255309        1.10695591057857
C           62.00948328443719        3.49594233779837        1.25082183809677
C           60.80661161984914        2.85211221287768        0.80908853853597
N           61.05797526874126        1.54491604812425        0.47655432275836
C           59.59310670299448        3.50012693316099        0.62105218678191
C           59.50625199085204        4.96150530032156        0.84149069315856
C           60.26986850835974        5.82606659265544        0.15370488801125
C           60.20794384875956        7.31481537612656        0.36628348120892
N           59.03120958391465        7.69460046481411        1.14977990510853
C           58.38506992590234        6.79318721721601        1.94772293785878
C           58.55373993738939        5.46350972021862        1.81846691177723
C           58.45290038373141        2.81217961957828        0.23041257464246
C           57.19129733564064        3.43299560961744       -0.04043707977084
C           56.28921506650647        2.43407139215808       -0.19724978083414
N           58.33614196793125        1.44308033192109        0.16595431141321
C           57.00353318074546        1.20801909438789       -0.03016362846347
C           56.38474772014135       -0.03925217261711        0.08392316126427
C           57.12346713615840       -1.21745073876921        0.20766140051059
C           56.53364558108435       -2.50967683671783        0.36043899993348
C           57.53668090489821       -3.41154280221840        0.23041940943807
C           58.73533488328504       -2.66563366686485       -0.01000090079207
N           58.47755036436727       -1.31547912602197        0.04379836218702
C           59.95099551623188       -3.23401306785706       -0.36353448970738
C           60.02706106664021       -4.69885234686463       -0.56441754963582
C           60.86119097277939       -5.46520628183278        0.15721003929272
C           60.96879647071128       -6.95439006200082       -0.03188856956782
N           59.86610858186628       -7.47134772542308       -0.84411039600845
C           59.14804647531639       -6.65655870684761       -1.67310485936485
C           59.16390900242830       -5.31490310922830       -1.55876854713337
C           61.09491626721854       -2.46466281556624       -0.53068314235971
C           62.36615843906531       -2.98285734120525       -0.94568421510313
C           63.26594327989332       -1.98232488669820       -0.79423484099442
C           62.54193144180264       -0.85054964514200       -0.30056315735516
N           61.20303973961977       -1.13649624874043       -0.20490103939617
H           64.21782447915045        0.36530607928816        0.15977405412370
H           64.06233362621985        2.71533647306721        1.31788517048515
H           62.06681380462875        4.50795263006916        1.61795941138857
H           60.98194645521586        5.48996308966666       -0.59090711192954
H           60.15688696296712        7.83386857851006       -0.60122116006457
H           61.12547544085098        7.66560399402507        0.87391290737245
H           59.01526018810986        8.66036618480682        1.44154510470709
H           57.67326748521110        7.22788496462841        2.64212710053853
H           58.00056150085510        4.76567673989953        2.43073454265630
H           57.02746217499912        4.49701591475231       -0.09544862452132
H           55.23219607265477        2.50461960856954       -0.39775665674376
H           55.48403418738296       -2.68634427386635        0.53294915520278
H           57.48073224459633       -4.48671598360770        0.28457689186909
H           61.51147176314326       -5.04260490173049        0.91420939804330
H           60.94408639507241       -7.46286109933752        0.94229713301363
H           61.93482424748792       -7.20922748552166       -0.50561555390630
H           59.96647356877422       -8.43601187407827       -1.12240866355392
H           58.51023136488115       -7.17586002619992       -2.38116007181397
H           58.55556037526157       -4.69023431931782       -2.19715001588032
H           62.53513808388823       -3.98591568576112       -1.30282382665366
H           64.32714223130895       -1.99256382668117       -0.98691784676888
C           27.60003067822526        0.35143917434292        0.14672012427977
C           28.82401747077451        0.37381855548814        0.16232985798719
C           30.16653617075388        0.40063052220439        0.18710819112022
C           31.39671622796033        0.41996043957270        0.21490748985309
C           32.73387257662415        0.44962625622046        0.25601839392939
C           33.96339071360278        0.47792828653681        0.30135016384579
C           35.30381607213910        0.51955633865111        0.36653148717391
C           36.52563175255040        0.56529047943846        0.43614812754993
C           46.06749212110859        0.25618044153921        0.37241714287537
C           47.28429640283909        0.13588129832392        0.30539193888558
C           48.62142246959900        0.02895372232774        0.24468709160594
C           49.84880387389858       -0.04612213700424        0.19488096564493
C           51.18524283510174       -0.09857677326351        0.14925041283593
C           52.41524743163242       -0.12569308335398        0.12038771598537
C           53.75813207758314       -0.12164629070295        0.09500264403956
C           54.98213009977076       -0.10019431696082        0.08544774367592
Co          41.30787988086149        0.71959539895150        0.63185696637506
C           37.92440684558396        0.62999678233900        0.51662753819928
C           38.60176170485582        1.61711861731496       -0.20802989762901
C           37.95223698729838        2.65856934262362       -0.93768380198211
C           38.92512210960420        3.34129932769531       -1.59050101964636
C           40.16177516373114        2.68427957250435       -1.29066769405714
N           39.95430312364375        1.67248046531489       -0.37984248185608
C           41.35405786894895        2.90598042231878       -1.96415842746548
C           41.40322292819974        3.89693092375642       -3.06159966655674
C           40.59985175608528        3.80484987993090       -4.13448173218464
C           40.66942001199367        4.76825153029337       -5.28778934923774
N           41.45841682590918        5.95325215193735       -4.94777643158527
C           42.36199344056023        5.93880162356642       -3.92320828180899
C           42.36301284435915        4.98481571262613       -2.97291318114401
C           42.50416747428687        2.18104638757459       -1.67326700767493
C           43.70447577808250        2.22407543925631       -2.45146424462841
C           44.62389331015452        1.47382091632385       -1.79545415763716
N           42.67389533297509        1.37353031134927       -0.57617216914152
C           43.98733112267492        0.99213888043887       -0.61049249258329
C           44.67603102580289        0.41210523159922        0.45746998053688
C           44.02276118459980        0.05730379007174        1.64282668743633
C           44.69704843764210       -0.34536485860191        2.83518091786033
C           43.73666402879609       -0.70259206895123        3.72345335376875
C           42.47986169991326       -0.55894753279006        3.05210970489730
N           42.66910676623476       -0.01903929173937        1.79957879556995
C           41.27546370022301       -1.06684082692016        3.51803216237875
C           41.23335918160017       -1.79496803545241        4.80525714418469
C           41.99291915143996       -2.87899523000755        5.03419741308650
C           41.96688222370575       -3.62964326926927        6.33828813888183
N           40.81574736578089       -3.24198523717543        7.15489654637792
C           40.17150137318634       -2.05343237347283        6.95962427394098
C           40.31432879129179       -1.33136702251665        5.83197711247411
C           40.10153658387632       -0.95503930123198        2.78156214077120
C           38.87605875087410       -1.61798983008439        3.10925029901052
C           37.94628947881930       -1.18364338428290        2.22338139249635
C           38.60201750315585       -0.24146393928714        1.37232477614832
N           39.93295516608592       -0.15676784906198        1.67747056107095
H           36.88902580471864        2.83785586986622       -0.93396862344056
H           38.82266776806910        4.20405501517496       -2.22840647961821
H           39.90512485749315        2.98208195402679       -4.25656591809417
H           41.10239744011386        4.27028984842198       -6.17505302308539
H           39.65833296273458        5.09790871007570       -5.56564484799483
H           41.65744137499527        6.56257091940180       -5.72708784217242
H           43.02851276340107        6.79474180560310       -3.89304447569225
H           43.04326075551432        5.02874658474617       -2.13438120457068
H           43.81624188463447        2.75615452848660       -3.38248650125543
H           45.64917804880277        1.27574994410787       -2.06391974602820
H           45.76740176016625       -0.34017621252064        2.96517712436642
H           43.86027651372281       -1.04295963735585        4.73863790788377
H           42.67158568266745       -3.26856706908447        4.28457906868349
H           42.90235962432124       -3.44992457715131        6.89957115743917
H           41.90582112459875       -4.71099589341611        6.15185188702030
H           40.82217716546356       -3.61316694736479        8.09307517240462
H           39.48250054190558       -1.77359862593162        7.75011277674837
H           39.76073011689035       -0.41625305461993        5.67737073313234
H           38.75549444434434       -2.32733237609846        3.91201365362172
H           36.90296354654027       -1.44724216639878        2.15628036956718
