122
 energy: -242.269899787289 gnorm: 0.000756937519 xtb: 6.5.1 (b24c23e)
Cu          17.20840719839581       -0.06488371129745       -0.01767959140527
C           13.80335698391871       -0.07241818509606       -0.16104749052435
C           14.43799848397620       -1.29618798152177       -0.31020839222194
C           13.76335711044537       -2.55404859559456       -0.46028751650731
C           14.72234382123511       -3.50267737962444       -0.59487631814740
C           15.99256083990005       -2.82905247266141       -0.54568369893352
N           15.78887865504811       -1.49361407211889       -0.35558295695009
C           17.24020362269686       -3.44537057866639       -0.67513185652925
C           17.25672949164167       -4.90196019352458       -0.94411548894184
C           17.88957347796632       -5.77552835064939       -0.05391520874947
C           17.89663396734153       -7.13801961876199       -0.28996601997775
C           17.26979942186851       -7.63270299491314       -1.43017331248832
N           17.27104364459704       -9.06285252061296       -1.68147881371303
O           16.70891432293821       -9.45538907807859       -2.67170928072495
O           17.83029128747881       -9.76897468608994       -0.88217287434281
C           16.64025735570858       -6.78024850571793       -2.33279078682915
C           16.63505314764114       -5.41984918763006       -2.08477898749829
C           18.47352292923215       -2.79528497736586       -0.57367190413374
C           19.74643061970772       -3.40932856764015       -0.82394658225522
C           20.69162706711515       -2.45642983964026       -0.62472349265663
N           18.66372002506931       -1.48049170394885       -0.24363491308624
C           20.00765971121744       -1.25619365771438       -0.24943274618079
C           20.64429597872186       -0.05028825907018        0.09552560470609
C           19.97462529039131        1.14561994204980        0.41263904844779
C           20.62107245424929        2.34628522860038        0.84796559163664
C           19.65617545191452        3.28913577517343        0.99371344765475
C           18.40927865395829        2.66898057386493        0.64679953291081
N           18.63233060984573        1.35863907486590        0.31925079715081
C           17.16837170793216        3.31207560311984        0.65578797326747
C           17.15785402746846        4.76771449489758        0.93069426277399
C           16.45311266495671        5.27937965750856        2.02471566680381
C           16.43899630624272        6.63869684620203        2.27886917426996
C           17.13086563372006        7.49600924320179        1.42796645643682
N           17.11340583627869        8.92491677114053        1.68598649053983
O           16.49594467354424        9.31071963462714        2.64532677196586
O           17.71751591580207        9.63627359982054        0.92490616202548
C           17.83824931302027        7.00755872411151        0.33305931999214
C           17.85120390849971        5.64609443414946        0.09177865433518
C           15.93868179883695        2.69141559031392        0.42088645786945
C           14.66596339145266        3.35963111779031        0.36627882542102
C           13.72642575729381        2.40818407760797        0.14313095287701
C           14.41709891337730        1.15384826104911        0.04466618578263
N           15.75812556448498        1.35629182538940        0.20672828304331
H           12.71937769093284       -0.07490925209436       -0.20826511252256
H           12.69255613527080       -2.68185442214824       -0.45024800805802
H           14.58775917213405       -4.56655413088303       -0.70526384568189
H           18.36195294915279       -5.37953354434546        0.83751389646172
H           18.37722777878042       -7.82277216689811        0.39838969411907
H           16.16462389151171       -7.18973588657196       -3.21579129413524
H           16.15948824368548       -4.74504378581169       -2.78691918556365
H           19.89419275816956       -4.43109245125561       -1.13391835151102
H           21.75919578980745       -2.54949432163827       -0.73372548731227
H           21.67736871377979        2.44475233870726        1.03472048205627
H           19.77297261737371        4.30773201083904        1.32647431687999
H           15.92817477544978        4.60081783185419        2.68693143716508
H           15.90054041128777        7.04368459628938        3.12723104427969
H           18.36578549158038        7.69603158299325       -0.31608723927974
H           18.38800128805503        5.25429868984535       -0.76437300706543
H           14.51815081030934        4.42219324472290        0.47266016026022
H           12.65987992385183        2.53166753514785        0.04172944606212
Cu          28.11969043550897        0.06675645674377        0.00807139185540
C           31.52474018942247        0.12753852469327       -0.12213219679534
C           30.89008602048029        1.31793768387542        0.19847815636942
C           31.56471764941576        2.54029676929211        0.53101402495359
C           30.60572479160095        3.47017527366520        0.76193492518211
C           29.33551383566703        2.82725041936920        0.55492563741111
N           29.53920158214688        1.51796049626584        0.23043171392842
C           28.08787346143230        3.44714953665464        0.66598275242059
C           28.07134860607996        4.89832332278627        0.96278756256603
C           27.43847757840717        5.37437181180642        2.11557363465417
C           27.43145649426534        6.72596860795024        2.40764163076247
C           28.05833618504675        7.61208327137023        1.53613431577309
N           28.05710982757805        9.03209778838457        1.83943759842920
O           28.61903954100785        9.76729896707267        1.06847171921137
O           27.49782575116821        9.38705497560361        2.84512343905720
C           28.68788007215313        7.16026409802232        0.37973696788688
C           28.69307421451149        5.80612726962188        0.09956172042275
C           26.85456167074415        2.80644324265717        0.51626281518091
C           25.58165270749952        3.46952355712177        0.51445852325120
C           24.63646175413386        2.51144002996201        0.34185432004412
N           26.66437691424447        1.46381978420236        0.32924789175153
C           25.32043910853456        1.25805568129124        0.23975301313502
C           24.68380654555135        0.01078503731960        0.10739626279143
C           25.35349145005886       -1.21676873550410       -0.04703610944401
C           24.70705166920448       -2.49306511351525       -0.09367908179860
C           25.67195276504541       -3.42177162330441       -0.31209668973336
C           26.91884562527851       -2.71677653470671       -0.40116722797170
N           26.69579187472069       -1.37922215391608       -0.21346695832351
C           28.15974987419788       -3.31631555664239       -0.63398734317003
C           28.17028167045538       -4.76883138303337       -0.92494138949350
C           28.87502264528466       -5.65336949139723       -0.10258040185977
C           28.88912808789524       -7.00881478127086       -0.37663326956632
C           28.19719486145100       -7.48454866740577       -1.48685968680650
N           28.21434553101886       -8.90600559449797       -1.78320492255059
O           28.83237120549280       -9.62326275429195       -1.03892650210848
O           27.61078542921960       -9.28001268735694       -2.75589355945135
C           27.48987477317752       -6.62118708516175       -2.31879180007411
C           27.47693268489394       -5.26857750390418       -2.03200140094925
C           29.38942780656673       -2.65284210225283       -0.61903378183263
C           30.66214570713151       -3.25182111683675       -0.92021649649086
C           31.60167641931959       -2.28611331788898       -0.77032805586125
C           30.91099604580943       -1.08638363190418       -0.39126135948240
N           29.56996976342730       -1.33482739187721       -0.31692726154492
H           32.60871825253427        0.14755244617018       -0.16497271586659
H           32.63551664388309        2.65501790192828        0.58826487654981
H           30.74030338486771        4.49781848479237        1.05853401933977
H           26.96603219036933        4.67302277395721        2.79344296941562
H           26.95080682111153        7.10265420183359        3.30250187934655
H           29.16356876359660        7.87096345219974       -0.28526451916291
H           29.16867626542316        5.44382953570846       -0.80435710382324
H           25.43388853755465        4.53296722397331        0.61021094672054
H           23.56889213259554        2.63857728924390        0.27568877306696
H           23.65075552842655       -2.65437196385591        0.04252479658505
H           25.55516359162027       -4.49082458428722       -0.38555387542407
H           29.39995068080509       -5.27260871287644        0.76575580278580
H           29.42755543540412       -7.70235424141215        0.25801033113227
H           26.96231832699491       -7.01603863768558       -3.17870697606239
H           26.94013437873732       -4.58435068305303       -2.67878845619461
H           30.80996199426879       -4.27674774898294       -1.22001508555919
H           32.66822292909382       -2.36255533645797       -0.91063132646193
C           22.05538985590224       -0.03508966391763        0.11747131024618
C           23.27271298234662       -0.01153134230329        0.12204645828294
