187
 energy: -319.681166092653 gnorm: 0.000856073556 xtb: 6.5.1 (b24c23e)
Fe          31.69993785533426        0.02727086010741        0.02440319291810
C           28.31608917618015        0.11378642924579        0.12214562092976
C           28.96811660109443        1.13307144198092       -0.54146545772403
C           28.29576706639801        2.19961492141204       -1.21906752320841
C           29.25640323008077        3.05289221892955       -1.64757494702148
C           30.51338622119711        2.51305614101075       -1.21655757068458
N           30.32582792425204        1.31574895104173       -0.58175617092465
C           31.73584706205628        3.16096012367955       -1.37660758412356
C           31.75046670677178        4.51454146274137       -1.97332838266919
C           32.47562873704856        4.77184254670140       -3.13982120225634
C           32.49169690899527        6.03619432278644       -3.70062448232300
C           31.79367854716494        7.08251785914584       -3.09150913222379
N           31.77859745589089        8.33999116269805       -3.66816955099935
C           31.06301847655721        6.83274106298221       -1.92663160453412
C           31.04163214514813        5.56249181576965       -1.37969962799726
C           32.94146455450419        2.58970811451202       -0.99049114620981
C           34.20767157790016        3.25422566487079       -1.07777817053635
C           35.14925395114396        2.35314358090710       -0.70572966711994
N           33.10895244882292        1.30849656769399       -0.52131266039711
C           34.45477411944009        1.14704182233042       -0.38193553446671
C           35.10558063023593       -0.04756304237602       -0.04574278067919
C           34.41774930829055       -1.21597345527204        0.30782449256442
C           35.07174161147407       -2.45365415946612        0.59378742833388
C           34.10655646150895       -3.31965659286335        0.98818699178461
C           32.86758167071584       -2.60089015192574        0.95677273318134
N           33.07204515476389       -1.32274292797388        0.49329396706629
C           31.65569459251260       -3.12088527143169        1.39259100983545
C           31.63319169433683       -4.48026039927081        1.97557447032444
C           32.40344980652348       -4.78683703211386        3.10065700925026
C           32.38322850738466       -6.05606258345707        3.64999014216145
C           31.60071548209512       -7.05865830111595        3.07060505199195
N           31.54997048704864       -8.31911834671612        3.63806508073387
C           30.82425265747744       -6.75932857834703        1.94776271139816
C           30.84059266274370       -5.48407129934058        1.41234709103869
C           30.45997216149416       -2.41165775596138        1.30513122600696
C           29.20429434686111       -2.89037684487112        1.80653216114610
C           28.26683021423606       -1.98041548223231        1.44926978544872
C           28.95253892313336       -0.94263803958523        0.74108476261915
N           30.29836343624186       -1.19845304551324        0.69433565374382
H           27.23267374114897        0.14309810983058        0.15645259628143
H           27.22653621983692        2.26857306246409       -1.34261685942567
H           29.13649453302186        3.96450270703329       -2.21021349037573
H           33.01336918496511        3.96324474732060       -3.62268962024774
H           33.04746415279670        6.22053931935795       -4.61351399750552
H           32.55262410533064        8.53773403300378       -4.28208129744323
H           31.55391388939837        9.09508033849693       -3.04012729336949
H           30.51709611220672        7.64033980686205       -1.45120780210595
H           30.48807894669186        5.38093533058944       -0.46493870105498
H           34.34876905877960        4.28006920023410       -1.37691130963399
H           36.21846217015120        2.48021150411868       -0.64998835538912
H           36.13207978675113       -2.62420485057828        0.49821269307772
H           34.21493916850842       -4.35441296433083        1.26970981600736
H           33.00588118656712       -4.01176394631861        3.56161423877783
H           32.97527729749785       -6.27824354227779        4.53108086992272
H           32.34344239230079       -8.56383844785794        4.20858806421193
H           31.24989573716944       -9.05539475070555        3.01934714433551
H           30.21254745039877       -7.53257325907125        1.49589269655875
H           30.24971090910142       -5.26490444287411        0.52972837455156
H           29.06981156674305       -3.80231437504988        2.36533280863286
H           27.20517305160236       -1.99392523902486        1.63898691847912
Fe          58.53105791113985       -0.01813812785800        0.04250409599556
C           61.91697093000519        0.01175777167721        0.16771432653682
C           61.26419324065074       -1.09796384990077        0.66382184568584
C           61.93826442101371       -2.24343613382741        1.19521338240006
C           60.97788803247283       -3.07419815199485        1.66580958436598
C           59.71903453596811       -2.42736328731421        1.43303610217787
N           59.90603099105295       -1.23804360458178        0.78283883932810
C           58.49435592719359       -2.93489827111279        1.85843344103102
C           58.48034310677385       -4.18241613572321        2.65463452590339
C           57.79016210966890       -5.31050127487572        2.20372898515614
C           57.77316590057291       -6.47620065393680        2.94848356984976
C           58.43527798075792       -6.53284201098938        4.17783000559858
N           58.44971506308923       -7.70739979399035        4.90914791331424
C           59.13191648650504       -5.41043080883579        4.63363552395886
C           59.15423224580964       -4.25281027313570        3.87676912814028
C           57.28617531639106       -2.31215491960842        1.57419606048739
C           56.01639402242721       -2.77900498465997        2.04577041511499
C           55.07536820034300       -1.96881944870012        1.50346851058239
N           57.12046599582105       -1.19835307317395        0.78552805197358
C           55.77331205305621       -1.00335564874678        0.71423463218017
C           55.12361625820422       -0.02982140502485       -0.05463001747850
C           55.80900501471377        0.94135761388226       -0.79479038433891
C           55.15004262390356        1.89425847528142       -1.63118878375887
C           56.11562826377025        2.70058032864600       -2.13494319557081
C           57.36017456381657        2.24717840625200       -1.58874879870418
N           57.15722019758731        1.14103878067554       -0.79764091190405
C           58.57772125037172        2.87920490712997       -1.80450995098003
C           58.60383074610893        4.11777398027613       -2.61399515585751
C           57.87013404936075        5.24192276695967       -2.22618652408714
C           57.89379131358595        6.40016100831518       -2.98224104144919
C           58.64332971258962        6.45346210643093       -4.16052162763410
N           58.69832581587013        7.62086315222108       -4.90046760666391
C           59.38417091431702        5.33516701327416       -4.55268897246589
C           59.36435244594828        4.18508018024579       -3.78450362429315
C           59.77701384311626        2.39492738040731       -1.28843038299424
C           61.03784053356666        3.06360972491075       -1.43195850777871
C           61.97395419318656        2.25913568999533       -0.87478016703094
C           61.28276995548461        1.10589229436014       -0.38381522446060
N           59.93562671508754        1.21684492384925       -0.61118487501347
H           63.00041668894193        0.02319559459909        0.21075514861372
H           63.00843071736197       -2.37772275189631        1.19666058019491
H           61.09874663493132       -4.04239178867044        2.12404934082675
H           57.28018324946792       -5.27685463158929        1.24719733055679
H           57.24417326401556       -7.34928916018273        2.58222083656723
H           57.69214585058867       -8.34198930437865        4.71302893207124
H           58.64306680779330       -7.59611158167762        5.89167351206955
H           59.65047416239831       -5.44966410285089        5.58540133617189
H           59.68124251554655       -3.37986775317957        4.24611129371693
H           55.87261339656892       -3.61325404216723        2.71288941354496
H           54.00434980403208       -2.00721137504645        1.62130992845480
H           54.08656496959333        1.92621131924340       -1.80584529929312
H           56.00385421871392        3.52489089332437       -2.82028687470592
H           57.29354810893979        5.21178345985037       -1.30814008362852
H           57.32984414719094        7.27028812339073       -2.66428455089772
H           57.92228618278917        8.24932014960308       -4.76775292403070
H           58.97012021696077        7.50512974827005       -5.86356864671376
H           59.97081772527056        5.37208166607488       -5.46415551725184
H           59.92738728389627        3.31546724539152       -4.10534921095625
H           61.17598261145651        4.02821900867481       -1.89283584778506
H           63.03802119367003        2.41563167162904       -0.79377453202677
C           37.72911567534458       -0.08541489649117       -0.06943755956851
C           36.50467880847559       -0.07211737883294       -0.06191318224886
C           39.07423538872663       -0.09197048895464       -0.07631051919524
C           40.29892490650737       -0.08754148942790       -0.06912986641124
C           51.15276853197461       -0.02830986642179       -0.09611510090529
C           49.92862436517089       -0.02981999060949       -0.08907799126269
C           52.49900519658824       -0.03118707103454       -0.09459903757786
C           53.72293091838073       -0.02861792480710       -0.08223441045542
Fe          45.11348717630278       -0.04134809780931       -0.01917521779640
C           41.69783619170384       -0.07579648609970       -0.05896696586788
C           42.35977858829239        1.07064967040507       -0.51879706491372
C           41.66947240900792        2.23196693578002       -0.98267281708133
C           42.61462529002443        3.17334147367340       -1.22191785122248
C           43.87969270042772        2.57436703608826       -0.92029036509909
N           43.70645376342950        1.27751562285882       -0.50055267764657
C           45.08925860102524        3.25777414443545       -0.96493085170575
C           45.08099412954987        4.68799887517010       -1.35035355506960
C           44.66181652291311        5.08423800078175       -2.62247344453553
C           44.65902107175074        6.41992649555647       -2.98291539814561
C           45.07191740149915        7.39390373037555       -2.06960324502557
N           45.02209559693652        8.73371539410154       -2.40864269464443
C           45.48040647294975        7.00563805878220       -0.79070465233182
C           45.49277827505248        5.66688511375471       -0.44271286555433
C           46.31016695756944        2.66013332823099       -0.67290860937234
C           47.56890911935911        3.33345935357244       -0.78528437741210
C           48.52997208505435        2.40688174499566       -0.55149809911790
N           46.50239351879778        1.33632966341409       -0.36071432965852
C           47.85423670052353        1.17401138602236       -0.29956775461642
C           48.52852398887002       -0.03108953655123       -0.06429927188498
C           47.86700612507432       -1.23457157009187        0.21227275268796
C           48.55213108091082       -2.46953572405612        0.42411100643000
C           47.60446937520081       -3.38961281948113        0.72978137456516
C           46.34633906182813       -2.70665821082589        0.71380567015117
N           46.52105856217849       -1.39151381817050        0.35983757342958
C           45.13462698116006       -3.30749375264673        1.03988919653727
C           45.14577865636113       -4.71340423804592        1.49862276793721
C           44.43059567889860       -5.69562159865529        0.80766273266981
C           44.44673120764168       -7.01289333385588        1.22856751795091
C           45.17847082604627       -7.37825845910491        2.36205026735651
N           45.15746170620787       -8.68446120709741        2.81445691954537
C           45.88446434708884       -6.39949265378713        3.06721004240105
C           45.87354194520876       -5.08682165309497        2.63196960890770
C           43.91434993935172       -2.64811265218981        0.94319823786166
C           42.66030499619062       -3.23229821110281        1.31226890910499
C           41.69973131774957       -2.33344389270564        0.98496157365422
C           42.37311777876568       -1.19909931905587        0.43775733951942
N           43.72303210018008       -1.38226859691984        0.44430850968560
H           40.59941831652004        2.30938552904303       -1.08880021307636
H           42.47325565200946        4.18752319320951       -1.55770432451785
H           44.35621789335605        4.33270035047219       -3.34206906214923
H           44.33946267295485        6.71562999202422       -3.97619353850801
H           45.04614492255509        8.92777769458523       -3.39673596499861
H           45.61042838903641        9.33762270846741       -1.85748152162199
H           45.78913912320166        7.75809590192787       -0.07332686328665
H           45.80492259615582        5.37282445946942        0.55334398216017
H           47.69404647023202        4.37497869434365       -1.03239336834761
H           49.60091603703790        2.53089251300982       -0.55469121867896
H           49.61881326297438       -2.60283025130505        0.34212182858721
H           47.73785939169272       -4.43900531589542        0.93592489381445
H           43.87679228252554       -5.42373676640075       -0.08422698682483
H           43.89543103518893       -7.76767383923599        0.67854141626733
H           45.92821741589979       -8.94605360645922        3.40778522268548
H           44.91914953795487       -9.37542073422062        2.12139841703966
H           46.44179240388090       -6.67435889105817        3.95600285736790
H           46.41609083647263       -4.33144046504988        3.18972446793571
H           42.53799535873623       -4.19992257289539        1.77066432191327
H           40.63152649588358       -2.41458482130259        1.10594419656213
