136
 energy: -218.985379698619 gnorm: 0.000158156630 xtb: 6.5.1 (b24c23e)
Zn          17.58508111269740        0.01556183663337        0.00274708036269
C           14.17517175622704        0.04862823733464       -0.02131380635498
C           14.79713298615581        0.99007721018077        0.79038636061337
C           14.11535604587267        1.93072137803753        1.63378834396862
C           15.06860802091264        2.66699772080211        2.25892888925450
C           16.34530667902739        2.19346516498849        1.79469190076029
N           16.14510462639459        1.17013492824204        0.91447509753681
C           17.59239662458577        2.68967771777099        2.19708700027256
C           17.59833134983397        3.83285573407214        3.14132962168074
C           16.99722248589857        5.04748380711427        2.80002555248832
C           17.00945960154934        6.11455861827558        3.67869313594470
C           17.61562233544856        5.99498509749782        4.93504882288909
N           17.64828966587202        7.10977620641656        5.76184448426415
C           17.80536957034591        6.93397994683370        7.19947591648319
C           18.22182899071907        4.78402153387143        5.28037611814180
C           18.21039424555185        3.72265465623729        4.39116608300183
C           18.83491333312630        2.19591725941008        1.78174294139862
C           20.11017954507648        2.74851867315829        2.14515804248718
C           21.06219995410726        1.99313768682980        1.53945204424651
N           19.03668653333355        1.12745120024877        0.94858351624430
C           20.37955669127176        0.97916873411673        0.79191637447031
C           21.01833088014806       -0.01365092509069        0.02144814551515
C           20.37202495898536       -0.99700027924153       -0.75478471717860
C           21.04577784182082       -2.02298532298669       -1.49401319742142
C           20.08783166606271       -2.76406043996790       -2.10809402349894
C           18.81804414595349       -2.19006480183592       -1.75881030219924
N           19.02862099902399       -1.12360608823656       -0.92521459462997
C           17.57176499273709       -2.66272769691969       -2.18698420747055
C           17.56514778691325       -3.81080074934288       -3.12537307483357
C           18.18964099186359       -3.72062850019106       -4.37057064382223
C           18.18298935967182       -4.78613658819661       -5.25503595940375
C           17.54536015921450       -5.98076527418525       -4.90950686486062
N           17.55520884095987       -7.09879927115833       -5.73265291913525
C           17.72381744956506       -6.93079659312902       -7.17002462784200
C           16.92849691787804       -6.08120747997486       -3.65667325224092
C           16.93454945872539       -5.01017033595775       -2.78290084540313
C           16.32916795777234       -2.14122360508783       -1.80263394319275
C           15.05020335772144       -2.59047197352899       -2.28456969199597
C           14.10268276022969       -1.83393837936424       -1.67515379525443
C           14.79049031672577       -0.90537971379393       -0.82333749726726
N           16.13636633166694       -1.11216912662295       -0.92750595557079
H           13.08944973377948        0.05921092599419       -0.02936739444205
H           13.04360256050965        2.00348323610347        1.73509999848730
H           14.92335730277046        3.45378706732364        2.98197161965000
H           16.53421084092037        5.15947514105023        1.82560411842459
H           16.54905320495764        7.05553126548950        3.39603264087008
H           16.92698635173345        7.78384672052174        5.53450697553413
H           18.80863760368073        6.56970290943217        7.42405156723528
H           17.06756523156551        6.23092937034037        7.60321432328665
H           17.67364813935903        7.90651479487093        7.67397312797457
H           18.70559566416979        4.66289951797648        6.24186911208600
H           18.66904859891540        2.78252114961659        4.67824159270715
H           20.25799853532907        3.61417579073506        2.77056079045975
H           22.13318863488719        2.11223358719708        1.58357444228071
H           22.11514903294048       -2.15922424481048       -1.52696326956757
H           20.22783588747647       -3.63286643743785       -2.73095982642526
H           18.67185654218037       -2.79263521329376       -4.65856061475141
H           18.67649950525493       -4.68071637688491       -6.21346141561536
H           16.81540498028251       -7.75333908576414       -5.50754636972730
H           17.00890819497117       -6.20712146695943       -7.57844294953089
H           17.56546590022948       -7.89999155223936       -7.64315508351417
H           18.73840872272509       -6.59676202370179       -7.39076479613305
H           16.44429993214909       -7.00997776960924       -3.37336892930722
H           16.46167874444110       -5.10677002789635       -1.81154221415710
H           14.89992735362357       -3.37570171743607       -3.00827158636932
H           13.03132106194409       -1.88558197909859       -1.79229754452617
Zn          31.05706976776129       -0.01023723506764       -0.00793510306062
C           34.46687269502573        0.00995104899695       -0.05472108250768
C           33.84407950556228       -0.98843612296211       -0.79455141328405
C           34.52500756772216       -2.01551524176172       -1.53105811359195
C           33.57102840375787       -2.78706454385082       -2.11091290981269
C           32.29470452604655       -2.23261895163994       -1.74583487062063
N           32.49588274718482       -1.15058321610118       -0.93913660131903
C           31.04716843500284       -2.73488174766463       -2.13911113731210
C           31.04014206574335       -3.90441644036355       -3.05058091104860
C           31.63535276646828       -3.83215742265611       -4.31296150432473
C           31.62130494717055       -4.92045505298503       -5.16516638870673
C           31.01939145091924       -6.12258903433014       -4.77437263107249
N           30.98424764878957       -7.17042298220888       -5.68449366203330
C           30.83357459425327       -8.53674823690980       -5.20197928094273
C           30.41944771282289       -6.19968025845601       -3.51449180106211
C           30.43242661921944       -5.10223031753888       -2.67019975105036
C           29.80510532589984       -2.22335590730090       -1.74457010261137
C           28.52924626329974       -2.69968415802778       -2.20176748968188
C           27.57797140252679       -1.94349812837787       -1.59592004178782
N           29.60438967157251       -1.17689672166324       -0.88369470516419
C           28.26164921946543       -0.99185459631176       -0.77132333843948
C           27.62389771602946       -0.02253411021175        0.02930278274630
C           28.27124418949444        0.94862566180072        0.81988929641204
C           27.59859319766033        1.89271087366660        1.66203633406140
C           28.55727038191641        2.65350545752792        2.25034504629734
C           29.82638057540327        2.18874847657740        1.76330832229012
N           29.61473285705894        1.14290164230329        0.90425630542105
C           31.07302128157265        2.71153348810864        2.12755482691145
C           31.08049048795007        3.87924468945290        3.04127177421310
C           30.45066020698101        5.07215388046806        2.68207452251020
C           30.45809738910632        6.16966370868503        3.52644773501393
C           31.10218921775466        6.09785400394913        4.76462407661690
N           31.09390421951597        7.14725162188755        5.67361706564049
C           30.91714293376713        8.51150437440513        5.19378381368927
C           31.72444496015933        4.89978232878003        5.13561896262232
C           31.71734491199910        3.81139508215953        4.28355852690678
C           32.31507157141206        2.22413789444615        1.69907007158921
C           33.59425938465994        2.79467126187679        2.02774306389679
C           34.54098486054638        2.03569614238058        1.42012709107442
C           33.85243502975431        1.00019967261982        0.70283642595286
N           32.50691616380933        1.14513264462707        0.88608196595439
H           35.55254484295550        0.01706484943571       -0.07010377544366
H           35.59676349117640       -2.12878309756043       -1.58327663693113
H           33.71548337254999       -3.66367356737413       -2.72216274324640
H           32.09512224413270       -2.90396768940387       -4.63468394014031
H           32.07689999673157       -4.84661907962206       -6.14715255614765
H           31.70154848426738       -7.09193708385213       -6.39559690085764
H           29.83345925764084       -8.67984020700694       -4.79095290961886
H           31.57727789939596       -8.77782414199481       -4.43358988417024
H           30.96095137506846       -9.20934570005350       -6.05033658399460
H           29.93917440842864       -7.11338848173875       -3.18637795792428
H           29.97832498649692       -5.18041926669835       -1.68820127587786
H           28.38057200982444       -3.49977976361512       -2.90893436125023
H           26.50682756081418       -2.01312803503452       -1.70057159494335
H           26.52943750831000        1.95379838405749        1.78999897411349
H           28.41813907856683        3.44984998740416        2.96369227769823
H           29.96374279696281        5.14725765128669        1.71569135954714
H           29.96029404642145        7.07979195602728        3.21484107686493
H           31.83789659037608        7.07480117767056        6.35742540404886
H           31.62568322372573        8.75271108948771        4.39291729518134
H           31.07884678913107        9.18742908922603        6.03356700208172
H           29.89949613332273        8.64944024587565        4.82625103444107
H           32.21364781891874        4.82958100969101        6.10157025925842
H           32.19419214099645        2.88653163676688        4.58972237335223
H           33.74526051985009        3.67316045537159        2.63466880403007
H           35.61222407107523        2.16295757676886        1.44138823725060
C           23.64630714588932       -0.02409842221394        0.03377565988560
C           22.42394350205659       -0.02213831763000        0.02752738457784
C           24.99588763668440       -0.02563378205421        0.03638290403795
C           26.21827260748385       -0.02382678533395        0.03717503650015
