74
 energy: -127.714696301394 gnorm: 0.000208116097 xtb: 6.5.1 (b24c23e)
Zn           9.06364412161660       -0.04069968823721       -0.01619140367977
C            5.63663548945174       -0.06327467409036       -0.02239984856302
C            6.26836402048196       -0.96177536599857       -0.87542198167900
C            5.60335707176970       -1.88822926872400       -1.75275219193083
C            6.56914671804371       -2.58605154440215       -2.40135501430737
C            7.83549987368444       -2.09459004066707       -1.92765537674861
N            7.61766120816376       -1.11077131713647       -1.00832739400030
C            9.08314463154748       -2.55382445332919       -2.33480562213643
C           10.32348188289776       -2.10329567263054       -1.89767964200998
C           11.59310810196020       -2.60669994085375       -2.34297583850886
C           12.55159201677105       -1.90100029669486       -1.68993857792847
N           10.53306934864164       -1.10709582350514       -0.98386337856257
C           11.87705474576159       -0.95996969211042       -0.84005509454254
C           12.51354492354115       -0.01537368677739       -0.01263479597182
C           11.86137299947914        0.91896540209269        0.81432159975619
C           12.52033261573034        1.86813925853036        1.66737519591538
C           11.55032119796406        2.55799743354434        2.32026530808206
C           10.28913643088214        2.03707614790978        1.87121129645708
N           10.51511985173797        1.04599472829484        0.95572791584292
C            9.04148739835530        2.46913476199465        2.30606784037370
C            7.80151399680443        1.99393662732469        1.89388224508202
C            6.52710704124540        2.46802644171427        2.36361973440659
C            5.57294672606669        1.75917929655593        1.70979126224137
C            6.25329424410918        0.84277348169836        0.83366265262970
N            7.60001534296603        1.00902180622628        0.97201745795809
H            4.55106595997487       -0.07019278302488       -0.02467087064195
H            4.53279697212663       -1.98191133479377       -1.84973046029352
H            6.44912278259732       -3.36652821275044       -3.13670518284691
H            9.09015030413148       -3.34990551487095       -3.07309470137830
H           11.72266945665189       -3.39795719871962       -3.06484885974827
H           13.62268142620162       -1.99876091521343       -1.77249097369437
H           13.58967909901861        1.98155625572616        1.75227564120653
H           11.66687771709060        3.34928743685160        3.04430129028929
H            9.03541964589852        3.26350521025748        3.04619451645968
H            6.39421951366178        3.24544803493919        3.09999063926906
H            4.50089999769854        1.83898138537013        1.80264989156820
Zn          20.00261158056682        0.04100476756324        0.01540333439784
C           23.42962020948421        0.06188106339260        0.02600352578942
C           22.79789244461893        1.30052768078082       -0.00056283790228
C           23.46290020811376        2.57620842387943       -0.02630469160286
C           22.49711113431423        3.52885504464205       -0.03665596285509
C           21.23075750246209        2.84655529921379       -0.01686554586552
N           21.44859537299623        1.50017809459935        0.00135440980535
C           19.98311311309847        3.46023951567242       -0.00910938274921
C           18.74277547489773        2.83282964006703        0.01116707515241
C           17.47314968182097        3.50485641513196        0.02042235076874
C           16.51466517025672        2.54339966956577        0.02875438672876
N           18.53318718693341        1.48100120366112        0.01697910746369
C           17.18920164762293        1.27540026490518        0.02438279725162
C           16.55271079576727        0.01987721375774        0.00099390691150
C           17.20488203534282       -1.22774610411257       -0.01583792860340
C           16.54592158927019       -2.50390205226922       -0.02334150645147
C           17.51593244411623       -3.45354124658064       -0.00446534353947
C           18.77711763072413       -2.76602836278211        0.01379602349814
N           18.55113504598943       -1.41686467021806        0.00331144922908
C           20.02476624966879       -3.37824843141850        0.04481881555450
C           21.26473999971066       -2.74936767893839        0.05959423066525
C           22.53914650885726       -3.41615132512069        0.08814527966338
C           23.49330740277437       -2.45183361276541        0.08135025959680
C           22.81296067634229       -1.18439417839450        0.04973802473760
N           21.46623946728609       -1.40047297163299        0.04023974969302
H           24.51518973420370        0.06852652747787        0.02897976658956
H           24.53346038272477        2.71076311823405       -0.03501966267569
H           22.61713575125911        4.60101439208302       -0.05557319873931
H           19.97610814615130        4.54592075818903       -0.01970120828899
H           17.34358900772498        4.57592410059443        0.01872789625212
H           15.44357582686384        2.67126720213353        0.03345412552269
H           15.47657501061107       -2.64493099777224       -0.03683742784624
H           17.39937525793725       -4.52608831059834       -0.00119639385038
H           20.03083333518848       -4.46390046750679        0.05791932424669
H           22.67203335006521       -4.48673742044874        0.10987125223745
H           24.56535403516354       -2.57334920331992        0.09635930865449
C           13.92530394692398       -0.00408892876797       -0.01080883369162
C           15.14095176738382        0.01030028268869       -0.00524475413172
