260
 energy: -433.343102986943 gnorm: 0.000694856039 xtb: 6.5.1 (b24c23e)
C           40.16600044096443       -0.10818694722799        0.05927627386764
C           40.78016493155589       -0.98257593591168        0.94701746848999
C           40.13386617910244       -1.90588326498706        1.81538588487373
C           41.09899836517261       -2.55708499851687        2.53165067799451
C           42.36559532465635       -2.04429696772998        2.13203097459894
N           42.12296261399357       -1.10824808904291        1.16678270026254
C           43.62964442269291       -2.41477460903484        2.60783819855367
C           43.66701733471184       -3.42224746627311        3.69356662929523
C           44.34861851349761       -4.62974503186393        3.52080933605627
C           44.38455833631098       -5.57526980862316        4.52993102603894
C           43.74774888232935       -5.32535791114951        5.74831708412872
N           43.74969401883104       -6.28429475480848        6.74642298810714
C           43.05906784541241       -4.12290952212932        5.92745075201749
C           43.02016791914710       -3.18670451496659        4.90936977406856
C           44.84024321766272       -1.90320931919829        2.13264259826323
C           46.13760661381684       -2.24389643285251        2.68752566046051
C           47.05379704359372       -1.56955603952008        1.96160426199766
N           44.98944059038273       -1.01821237492388        1.10816489413363
C           46.31442113578866       -0.80934514140443        0.97327317199823
C           46.94724309220705        0.00829376198960        0.01416259758727
C           46.30703779780467        0.82316531294123       -0.93941707840957
C           46.94704261576221        1.62328656436400       -1.92204365220803
C           45.97735935643836        2.28192184220315       -2.62684221427632
C           44.71434532838791        1.91044312183281       -2.08898955913251
N           44.96553105352044        1.01755240046637       -1.08015383037624
C           43.45133941785331        2.34660079784242       -2.50611380157593
C           43.41571226603985        3.36476904907412       -3.58076050144764
C           42.74443482757184        3.11443450651934       -4.78055822606851
C           42.71184256764665        4.06288224615359       -5.78711353040305
C           43.34161377317652        5.29744767553830       -5.60865872112185
N           43.34435665228759        6.23365378407275       -6.62784348659358
C           44.01930255477087        5.55433407028335       -4.41402760887110
C           44.05495190022486        4.59658100664428       -3.41637685761514
C           42.23815178095332        1.88866485489354       -1.97838342480225
C           40.93143952839683        2.38868399108026       -2.37536033825191
C           40.02237323535110        1.69350836009201       -1.66169165533780
C           40.77287341104046        0.78137066071390       -0.81771043942169
N           42.10374198071133        0.93471830364193       -1.02684641368912
H           39.08065814096545       -0.12670480594183        0.06061771906841
H           39.06640095474771       -2.04913249941489        1.87048433805071
H           40.95169263538522       -3.33274198342135        3.26555875536746
H           42.84549131243259       -0.58704772118814        0.68145217524971
H           44.83754915521665       -4.83520679582946        2.57486898936084
H           44.90814754400222       -6.51306810481987        4.37964687748089
H           43.57612658874222       -5.93286988805167        7.67458165142150
H           44.50670569504253       -6.94737337833558        6.69770057863915
H           42.55987226652569       -3.92436269329134        6.86963289454869
H           42.50134852673970       -2.24696729457288        5.06496409738606
H           46.30350062247074       -2.89713101936381        3.52888239477169
H           48.12650869677746       -1.56242519742276        2.07137490788962
H           48.01389978073149        1.67733802412706       -2.06775481197425
H           46.12171462611757        2.95596313735288       -3.45535170880956
H           44.24587203275848        0.56376824656356       -0.52717331412729
H           42.26270457632676        2.15467614170449       -4.93193166041839
H           42.19698358362753        3.85196947594705       -6.71808178946288
H           42.59452139592856        6.14051720631945       -7.29425324322220
H           43.51289600809901        7.18259914479673       -6.33445682213351
H           44.51289708085880        6.50933983049222       -4.27046266712571
H           44.56540040661312        4.81268036990935       -2.48407919496321
H           40.75699395642933        3.17539611162062       -3.09174966931762
H           38.94671418977832        1.77644406755802       -1.67462617056712
C           94.95697620193624        0.04712292897348       -0.12044137397809
C           94.33836788572890        0.70027077084928       -1.17900008265634
C           94.98069769925291        1.34277831285728       -2.27391574531589
C           94.01145373317790        1.87401573019475       -3.07826278989599
C           92.74604339178563        1.58182331941894       -2.49503721226805
N           92.99377070597163        0.86331578130546       -1.35969328839812
C           91.47875810446287        1.93402983920169       -2.97598599181754
C           91.43575465072750        2.75877507931456       -4.20627395991855
C           90.77630134835670        2.30052567873276       -5.34964971685385
C           90.73262849645403        3.06850865295054       -6.49949669684467
C           91.33896965679504        4.32708992951495       -6.52586841468703
N           91.32840627617729        5.08285648897869       -7.68553324950863
C           92.00672443758964        4.78989819208484       -5.38916863004847
C           92.05366123175057        4.01123193174562       -4.24640962023920
C           90.27018299883764        1.56767972812463       -2.37783926033561
C           88.96775601833752        1.99766132989597       -2.85310530749141
C           88.05601483357343        1.43882183245843       -2.03014289077544
N           90.12763060196784        0.78391724954359       -1.27295094110337
C           88.80289791678618        0.68008527844039       -1.04616175375760
C           88.17596679710820       -0.04904606773038       -0.01441231080465
C           88.82130123326520       -0.76025719862768        1.01549270283261
C           88.18677813183034       -1.52089884924535        2.03244531027790
C           89.16046426322795       -2.03972321771910        2.84086520694827
C           90.42056143480814       -1.60272311994085        2.34711061432876
N           90.16355194313415       -0.84168571522663        1.23670258011043
C           91.68622048973920       -1.89811133906771        2.86683110651326
C           91.72962332518421       -2.70170217130690        4.10997611135815
C           92.40625469398543       -3.92386268373347        4.14664977044935
C           92.44719471904021       -4.67827586274867        5.30548844583475
C           91.82060165596845       -4.21641042988242        6.46594780709062
N           91.82644296356197       -4.98604138521358        7.61609655978907
C           91.13755205833205       -2.99780486750768        6.43685722143314
C           91.09359835333233       -2.25420659562164        5.27104321131679
C           92.89622205841097       -1.48701132484784        2.29488568216671
C           94.20502496923129       -1.74602263719746        2.87380341558501
C           95.10990870399611       -1.20721716695663        2.03131657408633
C           94.35474352188696       -0.60599709096039        0.94696840920388
N           93.02520858295482       -0.78498155847116        1.14426311077113
H           96.04233193581587        0.05757684489854       -0.13507289605353
H           96.04855959678748        1.38099530889068       -2.41967952844509
H           94.15518401360623        2.41220738835596       -4.00112694622845
H           92.27343051194974        0.50013670981403       -0.74448422638626
H           90.31075667105375        1.32111342665942       -5.34010356380543
H           90.22606998049969        2.69742063570614       -7.38374590542765
H           91.47631814882224        6.07034552267403       -7.55080916400966
H           90.58116579126305        4.86771451859247       -8.32622839307461
H           92.48281000570300        5.76428301998445       -5.40455933365782
H           92.55558017217250        4.38753534317504       -3.36155485411600
H           88.79516476791028        2.65195505942423       -3.69225930819626
H           86.98162938356631        1.52625931211224       -2.05842460672399
H           87.12070742946798       -1.65458543726699        2.12180609023264
H           89.02074820963344       -2.68020307660562        3.69635132842686
H           90.88010918411146       -0.41261219759785        0.66043888410096
H           92.88582828607461       -4.29512150741237        3.24759597486706
H           92.96628769873524       -5.63045981890902        5.31776609127012
H           92.57926884072820       -5.65260886586218        7.67916313083738
H           91.65990800114369       -4.47784600913826        8.46990492100186
H           90.64640322649832       -2.63517003094881        7.33327988194588
H           90.57917220326792       -1.29935318246914        5.26359464512908
H           94.38345556879618       -2.25720739458496        3.80622105275083
H           96.18545975451325       -1.19160780214792        2.11516894592236
C           52.14930949248851        0.05042928629195       -0.03072298335449
C           50.92055198816269        0.04345046579498       -0.02414107649878
C           49.57661447234963        0.03592373583668       -0.01297056681791
C           48.35242558093992        0.02313688856514        0.00015019465654
C           53.49310894467877        0.05821039551595       -0.03162490819691
C           54.71761687136467        0.06373554653303       -0.03246383477042
C           68.17552999813884       -0.06200203679620       -0.01335240193903
C           66.94632624669387       -0.05940144899080       -0.01785375901884
C           65.60319393924357       -0.05059145066882       -0.01573835567678
C           64.37847381640803       -0.03389728621143       -0.01336611144367
C           69.51867973186228       -0.05782825468369       -0.00801647267306
C           70.74347045398645       -0.04850050765011       -0.00810074196580
C           84.20260909822026       -0.08170598593953        0.01465431161636
C           82.97380469822774       -0.07642603287831        0.01263741755664
C           81.63002102574426       -0.06413430667199        0.01252589251871
C           80.40562866525487       -0.04792373630362        0.01249059385620
C           85.54657666869505       -0.07916149403396        0.00995946973988
C           86.77082606650538       -0.06987065317657        0.00088281777277
C           56.12193178673547        0.06372283148723       -0.02681557931858
C           56.74199850260293       -0.25429623298101        1.19764586346034
C           56.08614940215821       -0.59750635349805        2.40742687169579
C           57.04474917630920       -0.79406037113603        3.36442449932125
C           58.31397831884647       -0.56797824882944        2.76704495760462
N           58.08065940870750       -0.25791883057935        1.45359130014181
C           59.56883744066884       -0.65292395005692        3.38511397007840
C           59.57202237360939       -0.93676416804714        4.83969193697139
C           60.21605161194450       -2.06905643754557        5.34502648170355
C           60.22064996599484       -2.33611507499786        6.70236267615564
C           59.59043427208567       -1.46164750592449        7.59163076992141
N           59.56140216994239       -1.74439915944675        8.94595145217122
C           58.93897697257857       -0.33011908503739        7.09393395736147
C           58.93027216788303       -0.07612529601777        5.73400499660782
C           60.79679182898374       -0.48997318283537        2.74059247819391
C           62.07877311978569       -0.52196751965817        3.42081480147332
C           63.02132461036438       -0.35065110016228        2.47028914082459
N           60.98109914029009       -0.27454605910978        1.40825892495774
C           62.31310932050157       -0.19961206378550        1.21530242060509
C           62.97505280673064       -0.01033487450174       -0.01538386381898
C           62.35378757845339        0.21168796168265       -1.26045451684259
C           63.00762066903334        0.37344105710181       -2.50856765061960
C           62.04917464652549        0.59830729218080       -3.45941669630880
C           60.78216847784839        0.58947752984057       -2.81612305683514
N           61.01652655484941        0.33829147129894       -1.49014506410578
C           59.52854404251213        0.78723665947580       -3.41001026280892
C           59.52533498622355        1.10880149537782       -4.85665909148525
C           60.19223611689075        2.23880491191319       -5.33700058182801
C           60.18718228150448        2.54633069194908       -6.68585345938391
C           59.51398028187929        1.72119191708705       -7.59053836057168
N           59.54736722529069        1.99819853281674       -8.94590792153113
C           58.85695732353099        0.58114312028094       -7.12017100006277
C           58.85829392574827        0.28668921615792       -5.76852038869569
C           58.30144051491448        0.70424452163476       -2.74809892865022
C           57.02224671046910        0.97910276397338       -3.37683283418965
C           56.07926040586712        0.77102224849798       -2.43402932996533
C           56.78466992480749        0.38379701215029       -1.22917102989928
N           58.11607328016420        0.36564150937720       -1.44217671061258
H           55.01778392415118       -0.68523677437885        2.52197521487252
H           56.88747185756618       -1.08207240072970        4.39099263927534
H           58.80592071199907       -0.06527963219635        0.77087595334045
H           60.69978776609074       -2.75727901474947        4.66063070657205
H           60.71468131556342       -3.22408307243761        7.08136730691715
H           60.29652712167736       -2.35220440127315        9.27030636784429
H           59.39618578623656       -0.95035084542097        9.54363675160956
H           58.44479449559913        0.35058709107241        7.77854230517885
H           58.43956182203177        0.81512391410487        5.35808402962500
H           62.21807096915111       -0.64311360889400        4.48286143779076
H           64.09308671980148       -0.31429977246445        2.58345656971262
H           64.07446064691214        0.31767602366298       -2.65333776955926
H           62.20489158723876        0.74525770771374       -4.51566468384327
H           60.29231112605189        0.25259209920905       -0.78489980775225
H           60.70047353601309        2.89542064843488       -4.63915932694671
H           60.70167129680312        3.43099382537598       -7.04494453875100
H           58.80124033035673        1.58683749713835       -9.48359474489942
H           59.73581284177033        2.95982218368330       -9.17999307113864
H           58.34524545553826       -0.07104273929347       -7.81944968594458
H           58.35404940474349       -0.60503537514663       -5.41269980434405
H           56.88539211146439        1.30222773138771       -4.39611256666142
H           55.00904773306199        0.87345930311835       -2.51756467616112
C           72.14704897877492       -0.03548713900352       -0.00205191868404
C           72.77047826936220       -0.32595595380675        1.22768181198875
C           72.11779267863717       -0.65798059621965        2.44228042045513
C           73.07840192795386       -0.83659213605726        3.40068671060933
C           74.34577919583781       -0.61055588534769        2.79917770595657
N           74.10916167564011       -0.31693498165843        1.48240309914961
C           75.60154407286623       -0.68665933861322        3.41603029854425
C           75.60661453873182       -0.95899871126954        4.87291490530881
C           76.24932914865418       -2.08798532458388        5.38699477931894
C           76.25418749611613       -2.34392722074529        6.74652833010444
C           75.62543463485524       -1.46149969613016        7.62889075137482
N           75.59618859768318       -1.73345096689757        8.98547818662750
C           74.97541364043971       -0.33307247137205        7.12238889531657
C           74.96654239041995       -0.09014127366415        5.76045573225290
C           76.82850923373252       -0.52550094331513        2.76880392677768
C           78.11163765664418       -0.55595707724521        3.44692467258181
C           79.05241463620267       -0.38416344747875        2.49477483157783
N           77.01013878422094       -0.31079703733390        1.43627122941038
C           78.34198949097933       -0.23259320457533        1.24107094990330
C           79.00136058691271       -0.03026781005913        0.01148212750055
C           78.37867410576918        0.20053221900742       -1.23095149063739
C           79.03183538733691        0.38719292633934       -2.47600993754532
C           78.07125263102837        0.60401957331975       -3.42656327838200
C           76.80334724064716        0.56370018364764       -2.78636824890914
N           77.03966213293197        0.30634742486463       -1.46204686461322
C           75.54696059272415        0.73345241191929       -3.38331417479402
C           75.53988697743941        1.06018498110594       -4.82906768609484
C           76.17196820711899        2.21303179463794       -5.30181228818772
C           76.15893964229186        2.52806405404074       -6.64894698222468
C           75.51290036326728        1.68764350467946       -7.55930078405548
N           75.53763883093634        1.97444954089279       -8.91288794651280
C           74.89261970730492        0.52408841367952       -7.09667316909739
C           74.90139196394547        0.22206878552749       -5.74671101417440
C           74.32022033920630        0.61909880387657       -2.72610924415959
C           73.03686028854662        0.85927324730832       -3.36060292552335
C           72.09612095316268        0.63633519848912       -2.41906801267382
C           72.80671987916830        0.27543568672710       -1.20902789194657
N           74.13837295557929        0.28375551421316       -1.41845419156214
H           71.05011650494959       -0.75150049786070        2.55862941438250
H           72.92401877598596       -1.11307279449197        4.43084977326106
H           74.83266046389978       -0.12776546037179        0.79684259468909
H           76.73170623008146       -2.78253397064558        4.70806181076843
H           76.74713971173624       -3.22947400087412        7.13252846210279
H           76.33089725929854       -2.33927672562191        9.31446366595461
H           75.43230404915047       -0.93426656866526        9.57667275273259
H           74.48231976635903        0.35378000314302        7.80162225328689
H           74.47671928822496        0.79850083777642        5.37728199855132
H           78.25296852981172       -0.67692934695407        4.50872131973465
H           80.12430456295540       -0.34648397477960        2.60622336944739
H           80.09983675666722        0.35303165099787       -2.61897467757223
H           78.22623517370384        0.76521458338616       -4.48085298035705
H           76.31587561259039        0.20036740012764       -0.75910520778374
H           76.65849240167172        2.88120652653690       -4.59948030234497
H           76.64552878236384        3.43069967308999       -7.00215905478737
H           74.80540887606230        1.54237461577010       -9.45344662738260
H           75.69408150978377        2.94335465008391       -9.14043820660538
H           74.40293451473754       -0.14000848908916       -7.80050528192654
H           74.42516600230022       -0.68718626859589       -5.39668728999423
H           72.89549098732878        1.17121164675764       -4.38272040131675
H           71.02413562821722        0.71365562406834       -2.50660172763054
