120
 energy: -207.018785090660 gnorm: 0.000720332720 xtb: 6.5.1 (b24c23e)
Cu          11.47438716124122       -0.03246453359829       -0.00642252247809
C            8.06758021706247       -0.05956049981699       -0.01934459629654
C            8.70162465502393       -1.29109909862925       -0.08819610271135
C            8.02575765031675       -2.55628443044499       -0.12833469147486
C            8.98407729490883       -3.51486430230686       -0.17118155899497
C           10.25512329559965       -2.84283132931070       -0.16702620506350
N           10.05208080273615       -1.49412009813933       -0.10968681363289
C           11.49946611927017       -3.47729467718184       -0.18828398410294
C           12.73292461405422       -2.82544337865351       -0.14468563389690
C           14.00955359134709       -3.47821236077193       -0.21459764557375
C           14.95679995054543       -2.50789983707987       -0.15870218269933
N           12.92344606631087       -1.47122337623917       -0.05984968757626
C           14.26691485808073       -1.25660874742690       -0.06221414645393
C           14.90425155169333       -0.00462799767742        0.00426602427625
C           14.24671665288705        1.23677755162447        0.06918370804987
C           14.91587511742204        2.50250670085933        0.10578767768761
C           13.95277247779301        3.45756526397672        0.15298301349306
C           12.68711282205038        2.78007017489861        0.15348619404158
C           11.44303331801095        3.41209725557149        0.18257676853307
C           11.42859952610802        4.89514445585225        0.26327954164112
C           10.89234650092024        5.65355287310284       -0.77775372037629
C           10.88010195536905        7.03830967781712       -0.70224638181334
C           11.39696458168593        7.68113380668568        0.41415835576571
C           11.93005425274954        6.93319860709324        1.45508228010793
C           11.94926186722244        5.54846404508812        1.38064399349688
C           10.20943098683371        2.75815589985083        0.14071549103856
C            8.92783566040745        3.40584046338912        0.21383393419919
C            7.98514998339026        2.43280951223409        0.15362389933325
C            8.68123808354139        1.18207550988204        0.05184308324286
N           10.02823489066367        1.40819892654724        0.05105335773915
N           12.89988573298372        1.42780416171898        0.09399128380309
C           11.51079938458597       -4.96055113182647       -0.26108072284765
C           10.98307231399834       -5.61877267494773       -1.37225736401334
C           10.99585572748152       -7.00404188551143       -1.43781178153896
C           11.53015681221200       -7.74755787216115       -0.39432703686284
C           12.05551916170671       -7.09983729433169        0.71531449589470
C           12.04902805492619       -5.71465930721543        0.78217496212522
H            6.98244602394299       -0.06910169638151       -0.00974927460519
H            6.95432387546727       -2.68090867505281       -0.11710922521466
H            8.84972291681738       -4.58440782121524       -0.19198118189052
H           14.15785611627371       -4.54188000354898       -0.30781483076207
H           16.02890709224830       -2.61947290684864       -0.18651482481772
H           15.98606907579934        2.63344868925166        0.09032989087297
H           14.08308132287261        4.52742904105664        0.17357681459558
H           10.49823200464502        5.15299725754451       -1.65512711397009
H           10.46565320806149        7.61803380670094       -1.51950020245758
H           11.38431806342643        8.76359502725780        0.47295728568278
H           12.33247313425914        7.43057504359132        2.33048438970045
H           12.35600352950867        4.96516594131330        2.19926397365324
H            8.77649985585941        4.46889588590988        0.31111249375620
H            6.91191675799394        2.53780938419393        0.18162200349864
H           10.57575201415868       -5.03905597900871       -2.19333907967982
H           10.58660559411744       -7.50527772961466       -2.30819768854436
H           11.53723444799624       -8.83042069097834       -0.44590532654909
H           12.47229276660483       -7.67615988470048        1.53404173106235
H           12.44978308283188       -5.21012843064322        1.65435518276008
Cu          30.07849920098949        0.02955810525440       -0.00572801787594
C           33.48520142243072        0.05816864494189       -0.01781765430475
C           32.85097457052168        1.29144528325154       -0.03199114147554
C           33.52660593544296        2.55726625287334       -0.01611542896071
C           32.56809859567190        3.51663331342881       -0.01649714493386
C           31.29715901503366        2.84486114206647       -0.04249857962225
N           31.50047179950302        1.49496213834513       -0.04456781012066
C           30.05256051600176        3.47925757117489       -0.03723666674108
C           28.81934134975174        2.82549383236230       -0.02342712821117
C           27.54247818013732        3.48006801215924       -0.06714414667297
C           26.59563420311257        2.50786238843504       -0.05352129095119
N           28.62932765183675        1.46877747285607        0.00329637804191
C           27.28596118645661        1.25393033407075       -0.00938885395106
C           26.64876114470681        0.00010134498890        0.00406447520930
C           27.30644259500148       -1.24279085450200        0.01700585716964
C           26.63759374134182       -2.50910849030761        0.00082264175529
C           27.60099518167469       -3.46503959508936        0.00705261018464
C           28.86647825403129       -2.78779519353406        0.03508374441389
C           30.11076659065456       -3.42004172640538        0.03541445401438
C           30.12578673310836       -4.90518801169805        0.05113444991498
C           30.66036825380811       -5.61693625607685       -1.02316615633755
C           30.67275282697687       -7.00366879952922       -1.00877215799206
C           30.15788440563901       -7.69510557965520        0.07922044142589
C           29.62664914354015       -6.99381207607357        1.15300200217721
C           29.60720078242613       -5.60713361192554        1.13963105541312
C           31.34406291762826       -2.76439168218793        0.02064125701950
C           32.62588545114017       -3.41428016900360        0.06422776304879
C           33.56827609125338       -2.43928522390693        0.04566888115447
C           32.87177893244316       -1.18548896800598       -0.00074439300538
N           31.52480671502098       -1.41171161513161       -0.01009003855774
N           28.65333439318126       -1.43429296402334        0.03304066573388
C           30.04037888046360        4.96417671268192       -0.04540421553844
C           30.57300340275881        5.67078324135032       -1.12405217409080
C           30.55905103287689        7.05758313266348       -1.12917803112587
C           30.01835979467357        7.75440610397380       -0.05717616125889
C           29.48794443252486        7.05842281332011        1.02038421167135
C           29.49596772543516        5.67167655927513        1.02693292132069
H           34.57033834692963        0.06739028692888       -0.00853400167006
H           34.59802119436904        2.68153780316705        0.00065537477978
H           32.70238451554862        4.58606018652702        0.01036884635850
H           27.39368304524091        4.54662122354084       -0.11554688105839
H           25.52352290100770        2.62005876569282       -0.07786630109973
H           25.56741151963154       -2.63955671266318       -0.01926243876706
H           27.47093109457107       -4.53486318982277       -0.01723497309206
H           31.05294955972449       -5.07818898849897       -1.87837898964941
H           31.08570966108973       -7.54676720955009       -1.85150629532129
H           30.17053816939534       -8.77910784917029        0.09020410497561
H           29.22585632444751       -7.52931878392998        2.00643320918040
H           29.20185308700943       -5.06052293004454        1.98383673070058
H           32.77752382734507       -4.48053817208308        0.11489609940001
H           34.64156569164248       -2.54507587124403        0.06807728801338
H           30.98491746437063        5.12788824930029       -1.96766201418625
H           30.97226844322328        7.59665588232754       -1.97463185088521
H           30.01003711034332        8.83847376457365       -0.06155350070040
H           29.06571666071734        7.59813643046086        1.86115694348036
H           29.09116248468633        5.12922066468604        1.87424490470441
C           16.30960971137926        0.00517895715413       -0.00414947400901
C           17.53408750896842        0.00560019679591       -0.00746380862850
C           18.87688823433692        0.00476990863436       -0.01142980107679
C           20.10746573297452        0.00047825241419       -0.01315000331492
C           21.44551433331421       -0.00435887870640       -0.01398070193441
C           22.67610247866192       -0.00884622833097       -0.01229180758094
C           24.01889908870186       -0.00999811812195       -0.00906752197346
C           25.24340518472475       -0.00902853402891       -0.00496705778900
