193
 energy: -370.863720028865 gnorm: 0.000611402994 xtb: 6.5.1 (b24c23e)
Cu          31.65103614683991        0.17837490128116       -0.46031614981182
C           28.26172014819488        0.12212983068521       -0.12733418159244
C           28.87936206750912        1.35883300632772       -0.01923052041989
C           28.18931163015060        2.60128182204261        0.17996634167472
C           29.13289656810643        3.57337663054858        0.23128982636457
C           30.41032463065394        2.93111547366544        0.07708691012137
N           30.22452715286881        1.58801665365180       -0.08226380494336
C           31.64457188846374        3.58478353129812        0.07550951727316
C           31.64239526082687        5.05219719022171        0.29999128507243
C           31.15479748450125        5.58637662962875        1.48923335948662
C           31.15277604467411        6.96520215691122        1.69716451465518
C           30.61988488495449        7.47314865182590        2.98624360341397
O           30.67137868292425        8.80846886354450        3.09883927346526
O           30.17667429145328        6.77448140520010        3.86154392156988
C           31.63919454477996        7.82207072209250        0.70992450875806
C           32.12425116823307        7.29277368325051       -0.47569799761190
C           32.12815324554931        5.92028450581102       -0.68085944798588
C           32.88113567801273        2.96568079700302       -0.11788978651873
C           34.15245649439918        3.62847594580927       -0.04544229722644
C           35.10470207620255        2.68950060361069       -0.27695470620519
N           33.07971915848537        1.63615509146154       -0.38056473292071
C           34.42347548459964        1.44743523226696       -0.48620859575885
C           35.06707966758337        0.22979656423776       -0.76824778885850
C           34.41958483273824       -1.00517512155372       -0.94647611736534
C           35.08907310018697       -2.22594774185684       -1.28115559082641
C           34.13852324107238       -3.19235683429114       -1.34829874142563
C           32.88166565042123       -2.56832753310274       -1.04534964550123
N           33.08417966832766       -1.23324900856838       -0.81596492490635
C           31.65098094904795       -3.22646600596154       -1.00724966695921
C           31.65334610433571       -4.69392682667858       -1.23416296900131
C           32.33181057032639       -5.54386069359533       -0.35792442723955
C           32.33581852571854       -6.91631743797122       -0.56496159761805
C           31.66638980559486       -7.45677732841963       -1.65003408171741
C           30.98534202566898       -6.61773164347957       -2.53339059857629
C           30.28180016038546       -7.23523320294925       -3.68517021161492
O           29.65151433496486       -6.34765204584308       -4.46877182929197
O           30.26310154279300       -8.41730385922697       -3.91574980185317
C           30.97827199104388       -5.24011155268761       -2.32340762003809
C           30.41916793964355       -2.61361166533761       -0.76768814488687
C           29.15825816798183       -3.29833462971737       -0.67310716349558
C           28.21180556687832       -2.35857984611347       -0.42899067950228
C           28.88624610440602       -1.09369086336037       -0.36139086200355
N           30.22402768828008       -1.27738995503039       -0.56690647928525
H           27.18222745598218        0.10396304952898       -0.01861149126936
H           27.11848526367945        2.70307245263260        0.25917346398987
H           28.98355116734902        4.63410711053224        0.35286194239183
H           30.78521114974556        4.93504442910537        2.27371848822923
H           30.30665925270393        9.05844267207969        3.96335780242157
H           31.63514632203938        8.89304074712017        0.87242602042661
H           32.50102938436596        7.95291464127955       -1.24878730578296
H           32.49730660740817        5.51380158713414       -1.61587882061337
H           34.29558347707111        4.67459128540393        0.17195231836439
H           36.17527807672387        2.81610693838062       -0.29980830294104
H           36.15001219230613       -2.32010851178630       -1.44905652560537
H           34.27108906383924       -4.23353313243641       -1.59415605295880
H           32.84699226336844       -5.12337536238515        0.49848158981533
H           32.86351772529094       -7.56375582358033        0.12603699081894
H           31.66057026071486       -8.52626343545506       -1.82752544872453
H           29.22072605821211       -6.82889003283881       -5.19376227500404
H           30.45946105276139       -4.58977872404818       -3.01773311862405
H           29.02327062784018       -4.36353014713106       -0.77068771276343
H           27.15046484628612       -2.49655674424780       -0.29513418499210
Cu          58.55515525775192        0.21282058862304       -0.36471541051921
C           61.95765047276632        0.13111196147771       -0.22753238386606
C           61.31529358246876       -1.06442253702142       -0.51134619699005
C           61.98293717134527       -2.30479909602507       -0.78575254873414
C           61.01867981736805       -3.23181773296192       -1.00649987107890
C           59.75160588681201       -2.56764702323560       -0.85807758476561
N           59.96323521020405       -1.25098970406847       -0.56682155392159
C           58.50269067482051       -3.17476209769911       -1.00963251336066
C           58.48267411683164       -4.63449018121524       -1.27733185795025
C           59.02609407793825       -5.52704580933602       -0.35756425677187
C           59.01305219220171       -6.89840137638198       -0.60887947311239
C           59.61309819232386       -7.79688124285902        0.40917871350005
O           59.54806031093293       -9.09600229722896        0.08328970581675
O           60.11832230667662       -7.41980048867242        1.43552750427851
C           58.45277930300414       -7.38751184518404       -1.78887157324415
C           57.91106022569895       -6.50110479923267       -2.70648592911514
C           57.92438570573054       -5.13622355837850       -2.45546676119288
C           57.27399356638976       -2.51635187819817       -0.92670057627665
C           55.99090481304575       -3.15257272104996       -1.02596063205354
C           55.05313522132677       -2.18023586733411       -0.89442296117453
N           57.09699537507767       -1.17369756509113       -0.72155633239118
C           55.75517067909236       -0.94691699072607       -0.70327272575284
C           55.13030623745574        0.29997259056811       -0.52548146672254
C           55.79808507879834        1.51271564627070       -0.28088676786103
C           55.14377168381777        2.77857456367538       -0.13905719695959
C           56.11231435805369        3.69983050178590        0.09625907345417
C           57.36558169254782        2.99985237241690        0.10640018809886
N           57.14186016635389        1.67022652454148       -0.13485625471899
C           58.61233551445544        3.59475757383798        0.30976382707356
C           58.63596797137630        5.04838578117089        0.61065282744759
C           58.01067780255806        5.54412634191749        1.75690788772784
C           58.03477224150680        6.90174616673021        2.04472317832397
C           58.68024210539641        7.78118511564712        1.19175050075721
C           59.30758162844827        7.29830860378117        0.04218389251946
C           59.98826957143449        8.27247035339247       -0.84723959995935
O           60.57241700636794        7.70843731971492       -1.91486254962484
O           60.02845519990841        9.45995819443249       -0.64994053097103
C           59.28532158465517        5.93506686165679       -0.24557276651012
C           59.83910092328793        2.92946494359527        0.25247030352249
C           61.12001828951452        3.53027991400112        0.51003738965959
C           62.05415213446069        2.56024783178807        0.35249365375149
C           61.35254185253747        1.35588487211227        0.01104144322133
N           60.01105939135119        1.60710664048394       -0.04004294410657
H           63.04159298588507        0.10504485779227       -0.18406371963016
H           63.05352103264028       -2.43339528466159       -0.81153842806591
H           61.14719452733141       -4.27191844541362       -1.25925752352815
H           59.45324315072055       -5.16609820769336        0.57168473414879
H           59.96044786214409       -9.61252140785010        0.79467865426296
H           58.44473188652449       -8.45310775082505       -1.98345734104508
H           57.47703272326330       -6.87397787062412       -3.62738751837855
H           57.51258870846544       -4.44783138475633       -3.18504052225260
H           55.83073888511966       -4.20982564114636       -1.16248365081823
H           53.97977310126720       -2.28126570104860       -0.91425897927618
H           54.07965113434741        2.93381119310864       -0.21821141238217
H           55.99368026618239        4.76224934765849        0.23507776122204
H           57.51583372812980        4.85551602304819        2.43267057163528
H           57.54852251167862        7.27117921891055        2.94037326589321
H           58.70876674946928        8.84445649370346        1.40146274705533
H           60.99218359965503        8.40793650486209       -2.44150095481792
H           59.76107434888564        5.56454637726441       -1.14587434777005
H           61.27643057210329        4.56040528618183        0.78695511934402
H           63.12413313647004        2.63671718853331        0.46499219701268
C           37.68968055880661        0.26269820502368       -0.93657262329164
C           36.46985425740981        0.24742650711572       -0.86830598379690
C           39.03837476464487        0.28372675602682       -0.99103447432646
C           40.25962885435102        0.30382098596979       -1.02768905967617
C           51.15808989448250        0.38241805037160       -0.72288205992560
C           49.93772981035784        0.39239329499676       -0.78576939494970
C           52.50610560188104        0.36084143692875       -0.65574221947654
C           53.72606462813345        0.33538424221654       -0.59346600754805
Cu          45.10015498349259        0.37918910606796       -0.98768498500681
C           41.66515431727640        0.33212224471135       -1.04074214798404
C           42.33514042109811       -0.81262977807699       -1.50803683625774
C           41.68085208888508       -1.96752437630569       -2.04603424356026
C           42.65426395448855       -2.84933879771085       -2.38808369655962
C           43.90983249720517       -2.24278529610852       -2.04654921662254
N           43.68243062541470       -0.99807147458711       -1.52284389116584
C           45.16204471424105       -2.83244574276012       -2.22910559504852
C           45.19373128136212       -4.21170168574229       -2.77779704730901
C           44.60402860552532       -5.26477991566075       -2.08490960476679
C           44.63813890754677       -6.55897858145689       -2.60294470929312
C           43.99500704283118       -7.64015628356170       -1.81486700527053
O           44.08428438503954       -8.84856672896935       -2.38958109850923
O           43.43935347336157       -7.47399253580116       -0.75929814701204
C           45.26258199373927       -6.80688184606208       -3.82528305314433
C           45.84959214096369       -5.75942565226525       -4.51773406239446
C           45.81870476235937       -4.47242932772634       -3.99964805922468
C           46.38968136083789       -2.23663795018248       -1.93186373687400
C           47.66558101806570       -2.88545271665625       -2.03836575966434
C           48.60321087591086       -1.98528859925401       -1.64683323600624
N           46.56915767852556       -0.96017795463923       -1.47079251535280
C           47.90667579624566       -0.78430849390399       -1.29579159594801
C           48.53371161184329        0.39547552380439       -0.85607467975757
C           47.86603141452154        1.57640775827427       -0.48523466458660
C           48.52381080045516        2.78945308494308       -0.10217398543955
C           47.55159612133997        3.69264036753108        0.18359978543778
C           46.29277523294982        3.03101914617202       -0.01159032872312
N           46.51768258499749        1.74602567953327       -0.42797633048144
C           45.04020176019790        3.61572213871242        0.18477505511828
C           45.01045528138921        5.01475150081843        0.68196275240988
C           44.44187939221406        6.02766179899473       -0.09341269238128
C           44.41092592166716        7.33700316516762        0.36609314556717
C           44.94296370172491        7.65052991736781        1.60563011815748
C           45.51239121252863        6.64668238315700        2.39051480812370
C           46.06991146658312        7.02254140090757        3.71403257126923
O           46.59994063933151        5.99034780790643        4.38594974844277
O           46.06040755754047        8.14039881594342        4.16247074085089
C           45.54682212276948        5.33277318356666        1.92757423273297
C           43.81077586876997        2.99277269755698       -0.03976405327198
C           42.53017645177983        3.57402647813419        0.24712778747129
C           41.59129076943952        2.65330080814282       -0.08956074548861
C           42.29137327564542        1.50442638742631       -0.58021752890924
N           43.63224030953009        1.72995605294827       -0.53798183298726
H           40.61353558104015       -2.07587807644925       -2.15441194930348
H           42.53635210358542       -3.82045729452158       -2.84085030866530
H           44.12539988776592       -5.09302953133774       -1.12699328300066
H           43.64260215874077       -9.49524016975208       -1.81553144672029
H           45.28606794946747       -7.81262738923901       -4.22698196431137
H           46.33462446507377       -5.94425655994380       -5.46960255553738
H           46.27034622414667       -3.65530820341477       -4.55118630044783
H           47.81973712016029       -3.90428767874122       -2.35508984848921
H           49.67207603567979       -2.11627266857183       -1.59169131530205
H           49.59287245631779        2.92606488168666       -0.06833232391123
H           47.67311853197692        4.71929905127396        0.48895449883658
H           44.03447630136262        5.78522375695717       -1.06863101936592
H           43.96999171898440        8.11341189439371       -0.24871387612746
H           44.92562055302945        8.66762696859515        1.98061022720714
H           46.93893150610684        6.31626321544067        5.23542736603725
H           45.97764788375925        4.55297156427873        2.54438468588937
H           42.37342170981918        4.55381186420081        0.66846132333540
H           40.51900489396635        2.73445284545664       -0.01051954681743
