270
 energy: -520.305361195977 gnorm: 0.000528313274 xtb: 6.5.1 (b24c23e)
Ni          42.04995057086361        0.17893288162989       -1.31787757423949
C           38.67018228697998       -0.02455017179576       -1.35088648640469
C           39.24466323845346        1.22438939084254       -1.23881432497807
C           38.49147090865358        2.43677629791398       -1.12990968185575
C           39.37949617236183        3.42263778481993       -0.86249964936598
C           40.67751942286549        2.81448911608154       -0.82651878562441
N           40.58678166669034        1.47138637721864       -1.08711769249374
C           41.85399319960189        3.51012822408453       -0.57415977453463
C           41.75939522468415        4.94105419145855       -0.19731241354360
C           41.09641805894147        5.31650806689123        0.96758040318651
C           41.00561221370324        6.66043548290093        1.32759502770697
C           40.28790732341136        6.99732222010303        2.58305776194120
O           40.26543619469530        8.31079623883610        2.85119267675400
O           39.76653240258565        6.18752014487926        3.30604590060341
C           41.57661157832377        7.64143748258306        0.51704689019202
C           42.23102502722567        7.27046886091158       -0.64706937446018
C           42.32344067041559        5.93248321728355       -1.00365069231814
C           43.10866328973945        2.93055446047639       -0.70631411033085
C           44.34094606464165        3.63541635646085       -0.52024418606861
C           45.33365050957048        2.79349401523602       -0.89627474566600
N           43.35263217232971        1.64234991861055       -1.12771988147348
C           44.70962253188711        1.56517395450817       -1.27260060847448
C           45.42130881200851        0.44828825662011       -1.72258961329880
C           44.82089763559807       -0.79997255590939       -1.90560773260295
C           45.55240870443485       -1.97732816731632       -2.25094330961673
C           44.68381436104849       -3.01356915734541       -2.16424694982585
C           43.41802950521758       -2.46217247612263       -1.78550358909689
N           43.50873727978204       -1.09594667074017       -1.65533106571811
C           42.26938698437122       -3.22102554414477       -1.59969263299201
C           42.38428887310553       -4.69833866716733       -1.66488589198002
C           43.16344779037484       -5.38311675111307       -0.72987584061305
C           43.27576192939526       -6.76557685545829       -0.78066353193312
C           42.61739585050312       -7.47985137765978       -1.76769459881111
C           41.84119625209009       -6.80587176134118       -2.71167128604255
C           41.15616811401986       -7.60646713879940       -3.75757850229862
O           40.43057748620828       -6.86781930415084       -4.60968183015748
O           41.22873542493663       -8.80490750460100       -3.85166423111978
C           41.72510684515770       -5.41826496791852       -2.65858700065213
C           41.01786339422403       -2.65047851660746       -1.40693694608941
C           39.79958225120801       -3.39897069090583       -1.29703708734241
C           38.78728344093612       -2.50024902581137       -1.28638804850335
C           39.38850818468993       -1.20307692940491       -1.34648360351937
N           40.75580555817647       -1.30299340497472       -1.39445451558820
H           37.58893398373890       -0.08673320100697       -1.38910219194834
H           37.41998397502186        2.50181059861066       -1.23195408714554
H           39.18813478832120        4.47301932472113       -0.71439963411548
H           40.65550432270449        4.56614830420816        1.61472742658334
H           39.78143188547351        8.44779517388474        3.68180049166830
H           41.50427284856582        8.68517971480386        0.79770895502150
H           42.67169975691418        8.02820775552421       -1.28501226762386
H           42.82310847222139        5.65121302597096       -1.92386947554256
H           44.42720124716742        4.64452011159911       -0.15186973037036
H           46.39712628388793        2.96940409813239       -0.90724048405959
H           46.59906389405166       -1.99390581882407       -2.50874119606657
H           44.86885023229492       -4.05831912357196       -2.35383312815095
H           43.67265746970843       -4.82522735685912        0.04800981447465
H           43.87964549681625       -7.28446293249685       -0.04502566735552
H           42.69486820439513       -8.55983620198537       -1.82254088064884
H           40.01886635848415       -7.46131285823701       -5.25862136273787
H           41.13455988389192       -4.89621934745653       -3.40208735364676
H           39.73854930358335       -4.47372283683300       -1.24305274926418
H           37.72566066291896       -2.67952556609329       -1.22608814314346
Ni          93.24723834334605        0.13238696611630       -1.30211492954394
C           96.61671702026217       -0.16470303122147       -1.39809728978750
C           95.85687672605818       -1.27889218110849       -1.68782288977326
C           96.41354982182375       -2.55540708293609       -2.01921676043642
C           95.38330941917975       -3.43298011817991       -2.04621648205384
C           94.19425964368384       -2.68784207670473       -1.75118238814260
N           94.49184871937199       -1.36273519351754       -1.56396925311600
C           92.92392381998418       -3.24773512604140       -1.67822944020590
C           92.79820956803253       -4.72151557898884       -1.77863282196928
C           93.39797111443043       -5.54071172693736       -0.82633183300354
C           93.28401516147720       -6.92747819804088       -0.91379517691305
C           93.94360461680104       -7.74693080562136        0.13419677751356
O           93.76756243440279       -9.06616739806137       -0.02758327130460
O           94.58210874522435       -7.29390185480667        1.04927191503073
C           92.56986022727001       -7.50526709463615       -1.96335146848851
C           91.97782871376671       -6.69178802656764       -2.91667339655347
C           92.08891187564001       -5.31131235477294       -2.82748932379113
C           91.77373547857218       -2.47893865785711       -1.56041569125176
C           90.44580577136350       -3.01458730423646       -1.55157224144082
C           89.59768822804064       -1.95878530580043       -1.59969952986455
N           91.73442691862292       -1.10258133830066       -1.54283825647408
C           90.40684747660433       -0.78206360640994       -1.59794406669522
C           89.88298856842324        0.51312714137850       -1.65538218691174
C           90.67328679749518        1.65061125893012       -1.46572975968473
C           90.14020093593962        2.97462605115914       -1.40484741358944
C           91.15241114519178        3.78326006109999       -1.00793976589928
C           92.30743230893869        2.95282735009233       -0.84788841158470
N           92.00777115410781        1.64824601640719       -1.16347517814104
C           93.54892534778682        3.42450991060418       -0.43886808660868
C           93.65214230870242        4.83534159773841        0.00532839362564
C           92.92853476330760        5.27118745066922        1.11780588397942
C           93.01703350906219        6.58779479532087        1.54754225542505
C           93.82450397246645        7.48615256903225        0.87017001895918
C           94.54739300369268        7.06422330827068       -0.24659089942203
C           95.39813862026153        8.05872275699292       -0.94770385302385
O           96.06061841967393        7.55303239516366       -1.99815215692833
O           95.50154334099659        9.21344443720364       -0.62180320615548
C           94.46037416268206        5.74171607065429       -0.67709321721486
C           94.69484592392104        2.64021771730413       -0.47535498563942
C           96.00915872589876        3.11402809497196       -0.15184840355580
C           96.87418811195339        2.12674807303985       -0.48345665271402
C           96.08598778808556        1.03373653583631       -0.96479756906974
N           94.75086086724345        1.34600116516836       -0.93007563744528
H           97.69516850505887       -0.25333846041246       -1.45716199105238
H           97.46253664245185       -2.73950822097072       -2.18791708877274
H           95.41015116360850       -4.48936085610775       -2.25884414703940
H           93.94876491971738       -5.10787388212070        0.00163722146538
H           94.22635284326280       -9.52906202931263        0.69227719582975
H           92.48353726624714       -8.58295229017636       -2.03075754549006
H           91.42675561872402       -7.13443457588166       -3.73869492121227
H           91.63679920120022       -4.68211381879805       -3.58596255119449
H           90.20214284557326       -4.06383211451032       -1.51670734420332
H           88.51979934989936       -1.96062787497243       -1.61978061331929
H           89.11721212020439        3.23407807824834       -1.62451729956013
H           91.13353743456993        4.84955191873208       -0.85190954946519
H           92.30337872826429        4.56608738558127        1.65418865559117
H           92.45328376553989        6.91037630870048        2.41541602669809
H           93.90548537118299        8.51825787789530        1.19199348364840
H           96.58938560892881        8.26191939949418       -2.39915583160992
H           95.00872820301512        5.42225602802612       -1.55533271268661
H           96.23076157981257        4.08214463288900        0.26688733992988
H           97.94916317955555        2.11464477325109       -0.39926987560559
C           46.80804749179666        0.57361476920827       -1.91247172828378
C           48.01684360861184        0.70849104193749       -2.04473051110410
C           49.34934875917888        0.86983252543813       -2.12593796706220
C           50.56527706381290        1.04505548466565       -2.14322831085999
C           51.88945302691022        1.25395007555432       -2.06852443090385
C           53.09324878523502        1.45732068915421       -1.95436745354978
C           54.40447286029864        1.72674960604654       -1.64702526957682
C           55.49524846419261        2.49329603356729       -1.96045594015301
C           63.30168814826214        0.69475971676085       -3.02651813499065
C           64.48234445818555        0.71480045492204       -3.35209931582797
C           65.80350392891572        0.73089771765542       -3.58983324225615
C           67.03092316535118        0.75840020970470       -3.68047867574517
C           68.36801103264642        0.78703621615891       -3.65204378625373
C           69.59024962087840        0.81358650409442       -3.50756628574114
C           70.90142945659129        0.84835424573297       -3.22170866931865
C           72.07133525231006        0.87508630931123       -2.86000684614080
C           79.80466013352576        2.64164893586892       -1.92218324290248
C           80.91427055658781        1.95754063759261       -1.50242991138410
C           82.22134958959327        1.65043949503586       -1.79078493089715
C           83.42233383931156        1.43076991444891       -1.90398965194282
C           84.74325168554019        1.20488681866635       -1.98610883993912
C           85.95748382580193        1.01696901166813       -1.98428073937715
C           87.28776786086790        0.82977984779057       -1.92537353932346
C           88.49685577953730        0.67672394387174       -1.81753082865555
Ni          58.83498532021128        0.70115748029422       -1.32359018666695
C           55.47606284223046        1.02321344591995       -0.99954708808283
C           55.99359954985052       -0.26624559030235       -1.20530660468422
C           55.20257484043290       -1.44289194830703       -1.25411460292167
C           56.07096185435353       -2.48453863351612       -1.39459614826986
C           57.38093215393918       -1.92599864883375       -1.46216380835790
N           57.32009347908178       -0.55671205997465       -1.29933778612304
C           58.51453060966414       -2.63192386370721       -1.85933712263480
C           58.39217051860066       -4.10279710306256       -2.00064458548029
C           58.11458143981343       -4.88633167129501       -0.88431016657797
C           57.99381732447958       -6.27005558847816       -1.00459307040483
C           57.69823707486548       -7.05194316224723        0.22273144365831
O           57.60706564316054       -8.37213979174457        0.00753735362983
O           57.54810307069056       -6.56974570557969        1.31592246895010
C           58.14451867158666       -6.87898306013472       -2.25034031984624
C           58.41063620152816       -6.09923881458080       -3.36485647792492
C           58.53366336207073       -4.72211878263476       -3.24443236687609
C           59.71186928087815       -2.02034366169916       -2.21138025181702
C           60.84405914798796       -2.69407111161048       -2.76371632422373
C           61.77800591656727       -1.74457839771364       -3.03195736324412
N           59.97375619509105       -0.66747856743828       -2.11198916050895
C           61.23760122706619       -0.50098903094090       -2.59235551744623
C           61.99213800431077        0.68762821390657       -2.52220918663945
C           61.56846719380991        1.78501416382810       -1.77259221748540
C           62.40027038014042        2.89862627458922       -1.42781008990493
C           61.72309154091832        3.62358900793545       -0.50551345735773
C           60.45137589468284        2.98451841978930       -0.32463621838944
N           60.37219868826720        1.86509194731063       -1.11055652841231
C           59.42425000614119        3.47596118996730        0.47604157645223
C           59.72900025451809        4.56134804756119        1.43260081307939
C           59.06047419763357        5.78749639044641        1.37868771143557
C           59.36353730602553        6.79907265654136        2.27929720275446
C           60.33884037224601        6.60375336904571        3.24286590592617
C           61.02220492954588        5.38792444325715        3.30088659866852
C           62.06586914187437        5.21919633418004        4.34343662238893
O           62.66962809091986        4.02269935080433        4.30981129284129
O           62.36024160962511        6.06217113610129        5.15175457166392
C           60.71908292061783        4.37300093178927        2.39660694471362
C           58.11001038958963        3.03522581907081        0.30404217696229
C           56.96770629297536        3.56683108525608        1.01011794347446
C           55.86791720395097        3.06309938402287        0.43195865851492
C           56.30892677146097        2.20512975871697       -0.68026733232741
N           57.72398218958639        2.14116848398718       -0.63727802496361
H           54.12694988062260       -1.46544385393887       -1.18542507442114
H           55.83858722163578       -3.53278763554230       -1.48827297708344
H           58.00170611110834       -4.42921242339288        0.09267135807998
H           57.41319548992259       -8.80960223613633        0.85251545687796
H           58.04888048309138       -7.95406039171658       -2.34243371388359
H           58.52044639967867       -6.56526653711432       -4.33751725067200
H           58.72189353825345       -4.11709872124259       -4.12415205017311
H           60.91703122454845       -3.75727260497796       -2.92453339377692
H           62.76233604995095       -1.87130230900506       -3.45301742737627
H           63.38503384330205        3.07533357876960       -1.82952278089897
H           62.03015482270521        4.53121640317341       -0.01160019529930
H           58.31519793223561        5.95646773951066        0.60947175071014
H           58.83792267542357        7.74551227246171        2.22213062601716
H           60.58710910483019        7.38357146323652        3.95387165152879
H           63.33289584301794        3.99128821037553        5.01830569170392
H           61.24367521072369        3.42626709716888        2.44971990410737
H           57.02749520849598        4.23314551215133        1.85562193974983
H           54.82857391817591        3.23457526319627        0.65925487791048
Ni          76.50794405042264        1.01315907829479       -1.10064706520084
C           73.37081559771177        0.91217733351208       -2.33189802528702
C           74.17314917262711       -0.24370885375860       -2.41142046530733
C           73.71361740856712       -1.48684275078249       -2.93745154416990
C           74.65206957390762       -2.41685153661818       -2.62107352253211
C           75.69928746714767       -1.73401365512651       -1.92978348462423
N           75.40153399301285       -0.38907682016311       -1.83944258514636
C           76.85944232753528       -2.33696286966579       -1.45710972023595
C           76.95816533790746       -3.81315579436824       -1.55527756405633
C           76.07080360749769       -4.61961480306571       -0.84854958129217
C           76.15058112252100       -6.00847124421312       -0.94159416720225
C           75.17672277139404       -6.81528366443633       -0.16329240899887
O           75.33334432777461       -8.13802982111222       -0.31708074760562
O           74.31926882468035       -6.35015943032887        0.54268729204515
C           77.11973531680869       -6.60023336857326       -1.75146171909635
C           77.99895277511044       -5.79862893701399       -2.46233634615329
C           77.92141468388422       -4.41630904564805       -2.36699403264360
C           77.95739858931221       -1.61956448202402       -0.98746828565665
C           79.23479500081740       -2.17401333209915       -0.68783910090154
C           80.10380771672396       -1.12709703569976       -0.57413380199570
N           78.02445446618451       -0.23930300291480       -0.95348946650282
C           79.33863460576151        0.05073931899445       -0.75964766891852
C           79.86347485042246        1.35932002025067       -0.72584079041800
C           79.01734275399198        2.57079995656704       -0.59987999167744
C           79.46242903278733        3.61329901642765        0.33983458950436
C           78.36560084132665        4.16026495281815        0.88233418086014
C           77.22036373807167        3.47076676302949        0.33538537915625
N           77.60597253734453        2.48121257533783       -0.50098838988439
C           75.89936724545102        3.88854460250420        0.52005088673467
C           75.64200838428766        5.04919984366913        1.40644879138537
C           75.17103350466880        6.25779639501059        0.88917136351277
C           74.94088828186422        7.34247153368785        1.72434532839885
C           75.18282881541845        7.23660154039790        3.08362630168327
C           75.66172100363376        6.03657340924523        3.61153477544478
C           75.91767004602495        5.96614528025459        5.07215379537824
O           76.38424944872691        4.77654601215556        5.47908434231632
O           75.73542775332231        6.87740594048983        5.83825144801254
C           75.89048957597309        4.94695319001271        2.77362570016923
C           74.85617176640338        3.31904120644236       -0.20014331875991
C           73.52774010282651        3.85283228102896       -0.30219610931881
C           72.85489939548519        3.07128547784998       -1.18012071847561
C           73.74396795866620        2.01710207141109       -1.56547108138378
N           74.96000104855590        2.18041529221297       -0.95994296585432
H           72.77830026286976       -1.62565758429534       -3.45521711302314
H           74.64625599468056       -3.47053807568117       -2.84808365517029
H           75.31534620787193       -4.17575997647715       -0.20944191501992
H           74.66293066304888       -8.59213574818324        0.21891243330274
H           77.17866064779393       -7.67939000836695       -1.82475216964604
H           78.74957555649848       -6.25176374109253       -3.09996590666558
H           78.60013018552918       -3.79574927084731       -2.94118969231931
H           79.45207619580920       -3.22573703439561       -0.59723821808623
H           81.16312592919492       -1.14985966860018       -0.37529191739976
H           80.50080586936549        3.86365389415451        0.48248861790797
H           78.30664755271727        4.97059578144661        1.59113635363015
H           75.00367971647493        6.35241745445745       -0.17784631906942
H           74.57692129916782        8.27480040909854        1.30784010851165
H           75.01071500859075        8.07472864658688        3.74938780808924
H           76.52155109620509        4.81196063100723        6.43970536819254
H           76.25213406660939        4.01273846177105        3.18682406895048
H           73.16877064113955        4.72239371207680        0.22370781115808
H           71.83617511370670        3.16780190291724       -1.51973896639137
