180
 energy: -311.147749670730 gnorm: 0.000452555941 xtb: 6.5.1 (b24c23e)
C           29.84392328339790       -0.04084627995293       -0.07518207286967
C           30.42527580698165        1.15750188827969       -0.46863497342466
C           29.74674812225360        2.33371839612047       -0.89439243407311
C           30.68741571916873        3.28488687334173       -1.17340384394839
C           31.97115989261230        2.72355848246783       -0.91781523820795
N           31.76217901614358        1.43756921048191       -0.50640976279499
C           33.21921297630501        3.33862012044273       -1.06814382971713
C           33.21321521776237        4.76055859689865       -1.49111251085257
C           33.82995718214441        5.15234473176488       -2.67981749646642
C           33.82375384793330        6.48045411282716       -3.07705588649035
C           33.20094846049997        7.43784300835463       -2.27966649695485
O           33.17431131449074        8.74994817256952       -2.62891644941312
C           32.58256835575507        7.06047798442697       -1.08911348862152
C           32.58826761893494        5.73143459268998       -0.70441296619904
C           34.45098302236605        2.71703422367922       -0.84616518689696
C           35.73037414894070        3.39371324638446       -0.95924708306888
C           36.67599211902833        2.47228280897452       -0.68217902269998
N           34.64076906877673        1.41825364324782       -0.48487867972357
C           35.97450581007855        1.23889661130357       -0.38537044521355
C           36.64178178619153        0.04085559167371       -0.06327735037721
C           36.03432422928292       -1.18522689151335        0.26642060395280
C           36.70422304033090       -2.39596492198028        0.58478636171497
C           35.75841385452420       -3.33769234574627        0.88242559042128
C           34.47945269279325       -2.72682067050874        0.76587345880735
N           34.69776100490744       -1.43065679608338        0.37959318998502
C           33.23256505788578       -3.32385381257758        0.98370077375288
C           33.24001619270544       -4.73301496700233        1.44572458208637
C           33.85861090448737       -5.08184427252501        2.64915259817507
C           33.86677606192929       -6.39370578452701        3.08847344285702
C           33.25792399978690       -7.38377165356547        2.31944259241068
O           33.28859791709335       -8.66184298996281        2.77744597166037
C           32.64027979214320       -7.05200874791592        1.11582309064990
C           32.63069821726411       -5.73352641127420        0.68771038230757
C           31.99953643956070       -2.68906673189162        0.80210419263190
C           30.71183616929890       -3.30666224497852        1.07854819918548
C           29.77340461644836       -2.38791624376304        0.77285884701653
C           30.48687487892890       -1.20504648669286        0.32520020812957
N           31.82463106192352       -1.41969465816318        0.36348656023197
H           28.75869869505724       -0.05876394132606       -0.07840093357488
H           28.67548977122481        2.42533486636523       -0.97768729468964
H           30.51328225585397        4.28569055068978       -1.53406449810165
H           32.50185960976331        0.78633410299207       -0.26582183001028
H           34.30387165527177        4.40656899948495       -3.30823237565695
H           34.29973015916400        6.77802910387823       -4.00527552310651
H           33.63361891795190        8.90108223808564       -3.46590180289170
H           32.10584539435371        7.81576986891553       -0.47659694526507
H           32.11986770014971        5.44105355365476        0.22948320476446
H           35.86610308253307        4.43454539329730       -1.20465116914332
H           37.74697994769981        2.59388447919284       -0.67024396766656
H           37.77452123269881       -2.52346594897977        0.58453862624795
H           35.92903871318828       -4.36746044584796        1.15085794037691
H           33.96136578310809       -0.75452121203268        0.20595916864034
H           34.32010034949450       -4.31004631277175        3.25511101138434
H           34.33881479572887       -6.66491931562051        4.02469734048456
H           32.83450709858428       -9.26382376025411        2.17268973225009
H           32.17152373231075       -7.82656316723827        0.51830455025605
H           32.16150370398518       -5.47929432005760       -0.25617634730332
H           30.56981989125065       -4.30265455209543        1.46629997868819
H           28.69996740759648       -2.46912488198938        0.84419306462878
C           58.36347458854345       -0.08531071473644        0.03252084776438
C           57.75257921538178       -1.21846507277180        0.55378749839444
C           58.40268899856731       -2.38210310801321        1.05254200123240
C           57.43961729647337       -3.25208162506804        1.48038902128555
C           56.16967959710293       -2.64470012618018        1.26426271878502
N           56.40945556185618       -1.42583797317634        0.69520639705074
C           54.90690625371042       -3.17685055667361        1.54833756232991
C           54.87612227854000       -4.50279022634617        2.21243290534266
C           54.24616440600022       -5.58999574299914        1.60582745133544
C           54.21384307615172       -6.82810787666365        2.22856924446580
C           54.81056665649501       -6.99023377677672        3.47674070339662
O           54.79797574081786       -8.18387726230122        4.12432825167548
C           55.44326895589116       -5.91271625896740        4.09390359473721
C           55.47611294996581       -4.68263457178159        3.46143843375165
C           53.69169714219267       -2.54850758345543        1.26224019827064
C           52.39370036841152       -3.09428765916664        1.61617691982207
C           51.47429748967423       -2.20843543435550        1.18011020824240
N           53.53900694950246       -1.34564041526052        0.64397680763854
C           52.21106312927391       -1.11661276780062        0.57373676707127
C           51.57827265909427        0.01523400697612        0.02517253209631
C           52.21333917907633        1.14811152849849       -0.51436360515049
C           51.56972511202147        2.26768146264801       -1.10540826867557
C           52.53700166138431        3.13972084556773       -1.52251361831139
C           53.80301490038886        2.58254788493485       -1.19084897064418
N           53.55537514227958        1.37734774299262       -0.58852101247068
C           55.06575514769962        3.12720015545651       -1.45027860103445
C           55.09885213183850        4.45810544085931       -2.10295190478480
C           54.50988668246321        5.56870825396483       -1.49319464229720
C           54.53787499646838        6.81046168282460       -2.10290454371527
C           55.15388936974137        6.95745195687374       -3.34435611625251
O           55.15831566170798        8.18867090604716       -3.91736559935211
C           55.74322694843895        5.85898184697417       -3.96587151588350
C           55.71632257680272        4.62059948448333       -3.34389745496587
C           56.28108961857424        2.50348543545902       -1.14835527977900
C           57.58688649253175        3.10459526046655       -1.37097343815415
C           58.49923326841565        2.20112903691771       -0.95913904838727
C           57.75210648198756        1.05418819272163       -0.47428088655925
N           56.42024702425984        1.27486829102740       -0.59572787073052
H           59.44880165849398       -0.09913493186996        0.02764146322458
H           59.47145020516522       -2.52480089494975        1.07088386894970
H           57.58956941916556       -4.23388580017522        1.89945753718805
H           55.68485256599219       -0.77271755184201        0.41662316745995
H           53.79221243723811       -5.46894917652803        0.62861218821755
H           53.72740670926073       -7.67102759872796        1.74944467083348
H           54.32640822287475       -8.85620058023180        3.61450148108630
H           55.89979452173596       -6.05177081701668        5.06608660640753
H           55.95440456758888       -3.84081207905344        3.94973663579246
H           52.22896505165692       -4.02097326301021        2.14164126715252
H           50.40063081491986       -2.25888111950876        1.26528306971330
H           50.50193358611451        2.37827489295444       -1.20549525611417
H           52.38925966184606        4.07999973956032       -2.02813089617217
H           54.27775248286559        0.74252493544465       -0.26478068442573
H           54.04304160579871        5.45891242377411       -0.52066569694285
H           54.08829497333888        7.67420440568730       -1.62887193219202
H           55.61456273949010        8.17869064131963       -4.76948185372411
H           56.21798173547523        5.97682411933005       -4.93407609482861
H           56.16274649048719        3.76348737663470       -3.83560543897614
H           57.75772678237858        4.09028876577078       -1.77316625971577
H           59.57532873279964        2.27844679002884       -0.96169903880643
C           38.05226115456139        0.05505391399279       -0.05902895408909
C           39.26913191050328        0.06161872490246       -0.04594584866027
C           48.95078528076571        0.03433880382631       -0.00249677266977
C           50.16704889873142        0.03001950631807        0.01170432769395
C           40.67894487717560        0.05604382842807       -0.02524747874551
C           41.30161190704030       -1.16245258877958       -0.35540674151055
C           40.65247200811569       -2.35500736321398       -0.76690853121448
C           41.61461249494009       -3.29535159619493       -1.01571679651030
C           42.88139694340462       -2.70554141461153       -0.75619927010103
N           42.64165671963209       -1.41446521179247       -0.36731337982267
C           44.13862688914674       -3.30773798342747       -0.89046702808573
C           44.14882667917917       -4.73672591852324       -1.28920858498608
C           44.77422270554287       -5.13606695384881       -2.47111713996645
C           44.78363298894280       -6.46849756399444       -2.85298458846485
C           44.16911118757346       -7.42312685475041       -2.04590724052919
O           44.15791226636175       -8.73944353173570       -2.38008301862898
C           43.54352149565521       -7.03856292024926       -0.86140725484743
C           43.53257049293244       -5.70498834084076       -0.49258203619906
C           45.36568520323246       -2.67303227558620       -0.68702371960188
C           46.64777291198245       -3.35083622944565       -0.75988975993847
C           47.58932686588780       -2.41573149239624       -0.51648102693388
N           45.54876140295042       -1.35876704405199       -0.38485538699446
C           46.88160769973948       -1.17164224646054       -0.28737860471544
C           47.54034706190482        0.04369178550978       -0.02239524657022
C           46.92055975856726        1.27730626372766        0.24661828288324
C           47.57466590901057        2.49113143406132        0.58299528725337
C           46.61381870487136        3.42763319691847        0.84987293454682
C           45.34293787731769        2.81547789612382        0.67281122524343
N           45.57966637028550        1.51810958035916        0.30371528905952
C           44.08593365515362        3.39549089010162        0.88211774780034
C           44.07561619589276        4.81479981198559        1.31705269159901
C           44.60610189845549        5.81932510024657        0.50451444099373
C           44.59670963724157        7.14101706245357        0.91472386701461
C           44.05950712931880        7.47622451707667        2.15619889995912
O           44.07089533701740        8.78179280556779        2.52962314601804
C           43.52991699870916        6.48460987368585        2.97870178244706
C           43.53700209585471        5.16466974482961        2.55591942202627
C           42.85838948712409        2.74749383217283        0.72957902639363
C           41.57484185924503        3.40545652092078        0.89597688057037
C           40.63217306796490        2.47491044711190        0.64057335817747
C           41.33916365962843        1.25335144060099        0.31178080747871
N           42.67346151201398        1.44686442241671        0.37275055533696
H           39.58581559368573       -2.46836220227606       -0.87258231503779
H           41.46174918339297       -4.30391252844550       -1.36350107469679
H           43.36384955612908       -0.74033771595853       -0.13641941589348
H           45.24239623390044       -4.39244706082098       -3.10638136876046
H           45.26526475674639       -6.77159091783858       -3.77650549447930
H           44.62321610945334       -8.89502822307413       -3.21295037712210
H           43.07373868070658       -7.79199779508575       -0.24129662210514
H           43.05791052796586       -5.40886757020452        0.43629172727030
H           46.78680383820697       -4.40212774045115       -0.95362467188483
H           48.66067709528150       -2.53332750433049       -0.48532032939696
H           48.64419849707496        2.61910814553002        0.62866951934143
H           46.77056104049329        4.44896416158168        1.15622061108179
H           44.85521595699583        0.82988182698584        0.12792480476407
H           45.01193649415465        5.56180359552686       -0.46746441899596
H           45.00029823529410        7.92307109456435        0.28354125667847
H           43.67147247079995        8.90198696890596        3.40165959454026
H           43.11623917881587        6.74906288845832        3.94596272927578
H           43.13537354779466        4.39188607093803        3.20183448381897
H           41.43472260110106        4.44229720706716        1.15539183646732
H           39.55985573120634        2.58190680545824        0.66594911088602
