254
 energy: -465.880662241419 gnorm: 0.000270075904 xtb: 6.5.1 (b24c23e)
Ni          39.04000945884856       -0.02149199872326       -0.08005440981715
C           35.65145350370805       -0.07596630262036       -0.27930839800335
C           36.31618002693504       -1.28370260775133       -0.24413286048256
C           35.64775293619147       -2.54878248340453       -0.25668982164970
C           36.60451426089390       -3.49408507981555       -0.10635699452529
C           37.85949701671090       -2.80614532916144       -0.02277783788844
N           37.67238765521024       -1.44921923071210       -0.11273653710646
C           39.07773714494586       -3.44379603990025        0.17238940094039
C           39.09722328463637       -4.92237591839158        0.30120794871575
C           38.72596163194745       -5.73212653251200       -0.77180890497356
C           38.74986776912240       -7.11368242310477       -0.65687671090610
C           39.14222786966958       -7.70046972265428        0.54384652634255
O           39.17753240308821       -9.04885687682498        0.70077168675108
C           39.51288223987355       -6.90177160691055        1.62416311410025
C           39.49272952711632       -5.52396012117763        1.49777836902158
C           40.28297954789410       -2.75795843188923        0.23069417814608
C           41.55391680557995       -3.40527809596724        0.35390087615534
C           42.49662727512648       -2.43658564246670        0.27036933475673
N           40.44731366078938       -1.39832608382949        0.08439224984488
C           41.80047441933390       -1.20140723586923        0.09932968016551
C           42.45394068612759        0.02384478720584       -0.05844977919933
C           41.76892449254235        1.23587305829093       -0.17803829357450
C           42.43205129036954        2.49314480937900       -0.31512222310673
C           41.46593012013257        3.44241778980515       -0.32517950972171
C           40.21412223493668        2.76049098869363       -0.19453422865587
N           40.41186569723394        1.39941583981927       -0.12879178647217
C           38.98762927743554        3.40988672840971       -0.15152704584310
C           38.97095547584826        4.89285010994241       -0.16241765404367
C           39.55757633069340        5.61488755774121        0.87965211593086
C           39.54487409185194        6.99836073540655        0.87765367213047
C           38.94770317650571        7.68261442800779       -0.17959289207211
O           38.95648674231060        9.04008034357488       -0.15190191538033
C           38.36358473620387        6.97576681948559       -1.22810362766258
C           38.37461012467179        5.58949551741927       -1.21361991093227
C           37.77880517798096        2.72644830700434       -0.12046988584708
C           36.49873815104272        3.37098845022278       -0.08458687650607
C           35.56513270241572        2.39312391379446       -0.14936457768079
C           36.27468280541292        1.15180999062085       -0.19979432670216
N           37.63026344219446        1.36221079379407       -0.16070610185605
H           34.56977846044018       -0.09323879594981       -0.34547484186433
H           34.58093792678639       -2.67523116485543       -0.35117042362327
H           36.48319492662204       -4.56340055575339       -0.04611074151208
H           38.43205652428205       -5.27623347029299       -1.71072034621816
H           38.46686425105506       -7.73928876824136       -1.49663149946517
H           38.90233538539144       -9.50498012742034       -0.10579801409541
H           39.81300234712566       -7.37193497543347        2.55244947727727
H           39.77282035383895       -4.90187417536112        2.34047759584359
H           41.69656041349004       -4.46712722390066        0.47011351351313
H           43.56934212648546       -2.53404855408854        0.31394167225697
H           43.50027134802644        2.61703860344087       -0.39066142571383
H           41.57973647715725        4.50949084416068       -0.42431617035455
H           40.01362849705186        5.08217207642781        1.70660378816963
H           39.99276201626425        7.56099521246607        1.68739357219541
H           38.51734079878013        9.41158531728509       -0.92874818912789
H           37.90478991852254        7.51242404119809       -2.05161863703576
H           37.93137204010170        5.04063934890147       -2.03708799998510
H           36.34672518253245        4.43582379567097       -0.01527723688013
H           34.49047554419702        2.48323378335399       -0.15267521322683
Ni          94.73572330087775       -0.00561580621595       -0.05041098425323
C           98.12282698377432        0.03070840161296       -0.27362031748675
C           97.45221313373108        1.22646392060822       -0.42304028244830
C           98.11340612915548        2.47663082443206       -0.64041565309552
C           97.15298366701803        3.43012494188156       -0.62912777868844
C           95.90307561034807        2.75923914602228       -0.42203689107300
N           96.09643906042110        1.40529254659845       -0.30493432704704
C           94.68593464877513        3.41627352573818       -0.29588769140355
C           94.66203429334679        4.89743495376761       -0.38965169439170
C           95.00134231579504        5.53651778381518       -1.58185981368636
C           94.97325014960599        6.91955841241043       -1.67598127272484
C           94.60891068067731        7.68025749575312       -0.56756379818724
O           94.57044194794199        9.03684042556845       -0.61492198561362
C           94.27096739493520        7.05322277112634        0.63034222886705
C           94.29514261683741        5.67212519022707        0.71273388774755
C           93.48665465242124        2.74458403775546       -0.10345026839059
C           92.21611487882001        3.40057649000718       -0.03416652354262
C           91.27674716680617        2.42807344342287        0.04354734808759
N           93.32563438926729        1.37744914716489       -0.05452407262905
C           91.97435433183463        1.18217327513279        0.02171155472050
C           91.32269400658605       -0.05446638995446        0.02819917556994
C           92.01103238585445       -1.27071165303574        0.04401919029687
C           91.35188683898582       -2.53726364962342        0.06596110244893
C           92.32151547849458       -3.47778161947356        0.16652965490811
C           93.57135654218401       -2.78118040838648        0.20670375942627
N           93.36896109036275       -1.42311869579376        0.10260374009741
C           94.79991901833081       -3.41484728682535        0.33727773152783
C           94.82215800441001       -4.88601392559191        0.52247191678341
C           94.22983164402073       -5.46688766846614        1.64640539765547
C           94.24807938928231       -6.83835284962620        1.82758034585897
C           94.85662545776364       -7.65340841359119        0.87471056963319
O           94.85293201303580       -8.99530442593707        1.08163104579391
C           95.44680357933078       -7.08849086789449       -0.25346815786906
C           95.43030428430149       -5.71255351858159       -0.42252081551568
C           96.00623276657500       -2.72820122656690        0.28372209311460
C           97.28842170699471       -3.35570695118168        0.41576597167410
C           98.21879986723992       -2.39235140078871        0.21936945387870
C           97.50497111186945       -1.17383579160521       -0.00975532530428
N           96.15004637353795       -1.38220456367010        0.05511794836732
H           99.20424645454131        0.04226442605757       -0.34498399397917
H           99.17841193614028        2.59087397510531       -0.76585291161852
H           97.26902526706473        4.49616385643978       -0.73818561891400
H           95.27350998555133        4.94452962155259       -2.44860856895647
H           95.23128886455984        7.41166767468985       -2.60759578794479
H           94.82077036240608        9.36632289348311       -1.48848513110281
H           93.99276434060040        7.65767031171825        1.48478908231972
H           94.04092012478351        5.18403931299009        1.64692607949929
H           92.07069800101492        4.46804187914219       -0.06112363444497
H           90.20514103722009        2.52898006248704        0.10345712485494
H           90.28371306336861       -2.67272824309046        0.01308035905887
H           92.21110724023268       -4.54928794962825        0.19993627919592
H           93.76508470239152       -4.83176740529397        2.39222700119731
H           93.79585296450880       -7.29116998055088        2.70123786786245
H           95.29924472863316       -9.46415996769118        0.36376875133722
H           95.91463202300226       -7.72704657463429       -0.99512860343343
H           95.87850820847554       -5.27516582314660       -1.30774034030321
H           97.44393549602671       -4.39971043995124        0.63412473177548
H           99.29378485301233       -2.47745230951625        0.23335817030010
C           43.85872062867239        0.03871034114011       -0.07559051609982
C           45.08272881129849        0.04688737429002       -0.08725886683948
C           46.42591085576152        0.05401004919009       -0.09421693740612
C           47.65621225290806        0.05616380134601       -0.09639965844086
C           48.99455841864043        0.05663600323639       -0.09571341543324
C           50.22493344305471        0.05430524779725       -0.09255382585085
C           51.56788885954349        0.05080716177092       -0.08818486676756
C           52.79218533892936        0.04624438886251       -0.08307653770707
C           62.42328789869364       -0.03090320716399       -0.01017174255684
C           63.64764892939110       -0.04050211438855        0.00683458666943
C           64.99001477472645       -0.04966875666612        0.02266828033544
C           66.22062014274636       -0.05598833119667        0.03358577033874
C           67.55836254696764       -0.06067835223823        0.04108483094273
C           68.78904972856080       -0.06260469785663        0.04277211413995
C           70.13151287411696       -0.06177026675973        0.03744254408106
C           71.35601437873248       -0.05845319298422        0.02779618403217
C           80.98490563984404       -0.08338598457153        0.00401241732329
C           82.20933820749315       -0.09306774034343        0.01432645468497
C           83.55198645442674       -0.10047898233583        0.02268347842654
C           84.78254117234333       -0.10313364423342        0.02791121476053
C           86.12061502539198       -0.10228919059921        0.03146313785887
C           87.35112664589383       -0.09814898306639        0.03310160965351
C           88.69403322509459       -0.08694858043494        0.03322119601804
C           89.91824916964886       -0.07403936577832        0.03142449853786
Ni          57.60817337606365        0.01832740786219       -0.06488542398592
C           54.19594892762876        0.03935467634582       -0.07883221559594
C           54.87206426198727        0.96971940035960        0.71669859746981
C           54.20905491601970        1.90532050352931        1.56695628987665
C           55.16760804515506        2.72303113602630        2.06701029839698
C           56.41246577076187        2.28929845515486        1.51076331737086
N           56.22337908051285        1.18004621054497        0.71776123667782
C           57.61923083916199        2.95303009908211        1.69380715216771
C           57.62472187545622        4.22461508565268        2.45419019426255
C           58.38350078496445        4.35138240975687        3.62061840210012
C           58.39066437104392        5.53541955202899        4.33587134711038
C           57.63974283104508        6.61991345846848        3.88543663531964
O           57.67388406777310        7.76816900648576        4.60845175603149
C           56.88106702509134        6.50924906603778        2.72233159018544
C           56.87316786390299        5.31598232208391        2.01705363109004
C           58.82203782868523        2.46923611029980        1.19476371829632
C           60.07276801810339        3.15341894714280        1.31683368646443
C           61.02561023774594        2.31561132715123        0.83979432936657
N           59.00215682063101        1.24341885467307        0.59428337164649
C           60.35307016034023        1.12990441023665        0.41611495927264
C           61.02019038323223       -0.01651017745771       -0.02775395354723
C           60.33984471217323       -1.14628461710327       -0.49326600022153
C           60.99772525683542       -2.34070242573122       -0.91567627598899
C           60.03958698169590       -3.15207413976749       -1.42660514355206
C           58.80023509684368       -2.44462008896895       -1.32264991700630
N           58.99129450522823       -1.22981285781063       -0.70383716213985
C           57.59784988706608       -2.90224668192872       -1.84683544918452
C           57.59627306238464       -4.16409556071934       -2.62355942464254
C           56.82873802391704       -5.25288123395300       -2.20851730838613
C           56.83099954408264       -6.43664115888323       -2.92974663708249
C           57.59993123919933       -6.53986362005175       -4.08678556269250
O           57.62883894246637       -7.67864320112085       -4.82497883349827
C           58.36708790718087       -5.45775017869245       -4.51505370762702
C           58.36572429870615       -4.28354072661943       -3.78372451950850
C           56.39825486070567       -2.22437753423635       -1.66978477866507
C           55.15262070386504       -2.63906592938434       -2.23870385973184
C           54.19940097324745       -1.81690240056064       -1.73579450116036
C           54.86688323528990       -0.89582534400628       -0.87326345660812
N           56.21573885564835       -1.12060552669370       -0.86742660497048
H           53.14625258678755        1.92327731731140        1.74685678130108
H           55.05158409441014        3.54480840123662        2.75460846459945
H           58.95806143551971        3.50406147899053        3.97776105333794
H           58.97179164732616        5.63410270273880        5.24437450449365
H           57.11879733548986        8.45249364815178        4.21098120843362
H           56.30160240125867        7.35710435139228        2.37308088115148
H           56.29216170739230        5.23529217026546        1.10506900676377
H           60.19662186359421        4.14765086591054        1.71388104105919
H           62.09023539144615        2.47234201128289        0.77509349128225
H           62.05723276632936       -2.51989038275848       -0.82884090173251
H           60.15226225775239       -4.14315850592732       -1.83475905691009
H           56.23959242462936       -5.17816545166866       -1.30125905464462
H           56.23920962975008       -7.28286904163902       -2.59759244115335
H           57.06341618385918       -8.36249500284823       -4.44148875278041
H           58.95623234714920       -5.55056824954967       -5.41901637781523
H           58.95368608363131       -3.43803192026155       -4.12292869342129
H           55.03237459239977       -3.45285437709447       -2.93502151013727
H           53.13760182533765       -1.82212211350390       -1.92230843386137
Ni          76.17032338185400       -0.04134024997869       -0.03385813512724
C           72.75906147895367       -0.05289274328706        0.00941025892019
C           73.44049394581221        0.88260145724856        0.79479375487983
C           72.78425401371710        1.81467213379554        1.65409179050307
C           73.74236956962237        2.65024706914349        2.12487088497523
C           74.98035161628263        2.22871304989031        1.54446221528511
N           74.78859944467573        1.11028468554574        0.76523067858823
C           76.18256059597226        2.90867879821054        1.69606557297566
C           76.18393988943326        4.19262348789001        2.43511100961324
C           76.95966105770368        4.35115659443209        3.58638993245024
C           76.95989032969167        5.54738951624031        4.28115314178583
C           76.18454386049027        6.61217456636430        3.82512991635582
O           76.21207711182161        7.77295479573774        4.52809729882259
C           75.40846055769842        6.46970553537629        2.67703781450833
C           75.40776615964010        5.26448164726958        1.99249863908184
C           77.38278592513917        2.42754432187018        1.18788539176668
C           78.63148663155678        3.11865390393118        1.28975264930338
C           79.58482221875074        2.27589761878193        0.82212236742041
N           77.56399880167500        1.19336922187888        0.60498463281239
C           78.91425353290654        1.08135611247636        0.42091991735608
C           79.58165164666747       -0.06990943231644       -0.01042737383840
C           78.90068292468766       -1.20224973280956       -0.46906325555195
C           79.55752276726308       -2.39576355648504       -0.89564102702610
C           78.59964441607262       -3.20193455230748       -1.41554056891425
C           77.36099336559478       -2.49373136268191       -1.30970107645897
N           77.55222239619502       -1.28348759602849       -0.68256872637271
C           76.15803860781821       -2.94707599808405       -1.83712692185008
C           76.15628231479050       -4.19976055031271       -2.62818460037944
C           75.38789978445949       -5.29279059689608       -2.22583281002891
C           75.38738051196266       -6.46728114227436       -2.96193419161065
C           76.15460558563178       -6.55694310324943       -4.12124791930458
O           76.17985107259703       -7.68593238531312       -4.87438758916228
C           76.92385758758610       -5.47106842528008       -4.53604055451560
C           76.92522910705166       -4.30616684217578       -3.78995349495308
C           74.95708460880937       -2.27598701599964       -1.64459565900902
C           73.70740068534786       -2.69130233070882       -2.20420151479288
C           72.75406036307338       -1.88648569334083       -1.67393669465893
C           73.42564223976206       -0.97286526222050       -0.80679274944292
N           74.77610316724758       -1.18519212804948       -0.82399367760751
H           71.72566237558256        1.81947808423229        1.85808002794873
H           73.63051926556057        3.47608794936882        2.80829808045812
H           77.55272266443073        3.51898159558768        3.94882237070937
H           77.55402277731920        5.67062866130922        5.17817898201403
H           75.63912678908562        8.44133802808304        4.12881917968492
H           74.80958424437571        7.30213932795019        2.32347168138487
H           74.81253455211655        5.15867342403832        1.09231890663596
H           78.75411796484606        4.11986093773657        1.66928918406849
H           80.64853939201372        2.43523182877439        0.74917457203095
H           80.61651841850880       -2.57718816499846       -0.80719033227524
H           78.71190582083509       -4.19029438420175       -1.83040209238823
H           74.80024257232229       -5.22877222652937       -1.31679483291411
H           74.79450241932184       -7.31661965216286       -2.63985228756172
H           75.61162221191125       -8.37267731111911       -4.50027743105497
H           77.51215733792587       -5.55357863128556       -5.44155303882361
H           77.51457238882372       -3.45756844226392       -4.11888407733765
H           73.58422752552238       -3.49414595330374       -2.91260050208147
H           71.68982813786172       -1.89834615868046       -1.84571689776214
