130
 energy: -227.034682176871 gnorm: 0.000948414389 xtb: 6.5.1 (b24c23e)
C            2.61427624623303       -0.13120451406715       -0.05463331262938
C            3.24924372925606       -1.36270527630734        0.03304017447719
C            2.61127773844604       -2.64291280829025        0.04209588601781
C            3.57956175804479       -3.60087172795414        0.07874867219591
C            4.84958285077787       -2.94473118035184        0.10007370971786
N            4.59213603917381       -1.59780701165630        0.09189137871426
C            6.10472917512205       -3.52337635263004        0.03291810913796
C            7.30781519883420       -2.80452253795863       -0.01009867729496
C            8.59836350320484       -3.32836546585630       -0.43072275087511
C            9.43365212324512       -2.27234913971176       -0.50619270347926
N            7.38669633047786       -1.49511565955493        0.24343610066521
C            8.67887483258159       -1.10723625182354       -0.07095115267715
C            9.09120307424762        0.16451931587697        0.05733398472683
C            8.58654298639717        1.40970166500143        0.20321988401629
C            9.18497481831229        2.64610537197264        0.60304712038894
C            8.23904112017591        3.62540490045973        0.51369749210390
C            7.01253687377105        3.02144991891671        0.10078819671218
N            7.28110033435367        1.71240213409943       -0.14575679996407
C            5.73209305262871        3.56179608234763        0.03279613795153
C            4.56509822868538        2.81445274979773       -0.09117653685238
C            3.22959278718174        3.39087129142007       -0.13198948397639
C            2.36831405581434        2.35493296236883       -0.15196412523537
C            3.17638642359532        1.14222885204069       -0.11149198159664
N            4.49008503084501        1.45837505643995       -0.09799604333437
H            1.52964484382027       -0.17475117432752       -0.08105555785958
H            1.54309110296515       -2.78883660414078        0.00985651468860
H            3.44739430064574       -4.67115321093816        0.08524519345069
H            5.31530146356800       -0.88595725179406        0.10493736968875
H            6.14920587217340       -4.60247168797103       -0.05977775662087
H            8.79789292952652       -4.36111964939216       -0.67048054667008
H           10.47216938802171       -2.24555805914072       -0.79451552030031
H           10.21583326765275        2.74930718561338        0.90111398409793
H            8.35690555790321        4.67195822158890        0.74591740573945
H            6.55697132019723        1.02015369740246       -0.30913416310377
H            5.63824905135899        4.63518967539448        0.15242500311097
H            3.01775599675475        4.44854088467226       -0.14295635313869
H            1.28986581602015        2.37251792490314       -0.17790174125022
C           55.11814051179269        0.14673454767546       -0.05342605304587
C           54.46429489775415        1.35325447485109       -0.26876075786561
C           55.04652304017552        2.63076291946685       -0.51035865203177
C           54.03155818428351        3.53193697969690       -0.66886137039068
C           52.79766799048586        2.83395552046383       -0.52760275561523
N           53.10955440692930        1.52700613020237       -0.28912334920032
C           51.51529424966017        3.36468061530483       -0.60873282887837
C           50.31236528360068        2.68879722455257       -0.46635974903298
C           49.01808584398229        3.34052507439227       -0.56219020730536
C           48.09179615937539        2.37837418096551       -0.37209971855069
N           50.15114136131464        1.35918877966806       -0.22305190634506
C           48.82397416941135        1.14211205277091       -0.16234242597087
C           48.19801989356820       -0.10232459350889        0.06467338410808
C           48.87779602711210       -1.31930311516800        0.26354533525665
C           48.30098570055233       -2.59844902546302        0.48805160372294
C           49.31970530400702       -3.50067157252957        0.62503670217313
C           50.54924953330069       -2.79729729588603        0.48916525072748
N           50.22956521293251       -1.48401164444592        0.27210456201381
C           51.83009641947378       -3.32966760651749        0.56514707302190
C           53.03478437683498       -2.64833659328309        0.44176366426766
C           54.33545817068224       -3.29153644726339        0.54674689109811
C           55.25569277025271       -2.32075238439431        0.37862123232695
C           54.51632030887203       -1.08626963180736        0.16824304234762
N           53.18339066566690       -1.32218803999869        0.21438532083625
H           56.20246645511021        0.17825523679071       -0.06472908543173
H           56.10726109448624        2.82007434726981       -0.55528643711137
H           54.11577844591660        4.58884040099707       -0.86630821265423
H           52.43451753992651        0.78346454063570       -0.14554758310292
H           51.45778807647898        4.43077262908099       -0.80389131634955
H           48.87203246929788        4.39268223375332       -0.74984018945182
H           47.01698905040930        2.46611716395381       -0.36925946208074
H           47.24119453108461       -2.79092268901665        0.53640142183691
H           49.23856455777929       -4.56079729344904        0.80484709713889
H           50.90256638292798       -0.73698300361418        0.13556020014372
H           51.88571588683751       -4.39861822350122        0.74430737258347
H           54.48742920467121       -4.34449256793945        0.72615410850046
H           56.33173960565181       -2.39800472442089        0.38906155788211
C           14.00154363657337       -0.01061324609171       -0.13989285144421
C           15.21314539291813        0.00403524560104        0.07250365974014
C           16.55509040821416        0.01353491118936        0.05324981651485
C           17.79259656944566        0.02613553900391        0.00596696644945
C           19.11957711565530        0.03564069736940        0.00639759145436
C           20.35961096871989        0.04312082862881        0.00723055988771
C           21.68707030460276        0.04962259442630        0.00196416912704
C           22.92454235023423        0.05257923024543       -0.00297710109512
C           24.25969825602666        0.05227782521271       -0.00686261177295
C           25.48889002335545        0.04717323695521       -0.00932057690772
C           35.29603147168001       -0.06862026717576       -0.00342741645929
C           36.52207088200986       -0.09113050993714        0.01192509663355
C           37.86188862675863       -0.10819410962803        0.03169440762008
C           39.09451653034284       -0.13149941146272        0.04958834799682
C           40.42843404933941       -0.15177517135207        0.07039348735392
C           41.66258036853333       -0.16881876161948        0.08723547361595
C           42.99694777596884       -0.17489743030994        0.10320300978326
C           44.22950906679992       -0.17736185086937        0.10639133358994
C           45.57030002861345       -0.16288573859220        0.10295729286032
C           46.79568374144232       -0.14165559214670        0.08767254680598
C           26.88620096989776        0.03662089748575       -0.01239427813489
C           27.54504881033450        1.28520159954938       -0.02906436033821
C           26.94885083982959        2.57199597181007       -0.04471648487394
C           27.95595206378566        3.50023602660580       -0.05865913599384
C           29.19354046538252        2.80241326879193       -0.05177229670452
N           28.89446313446686        1.46797260925146       -0.03386904082020
C           30.46736358483085        3.36506219508885       -0.06077517736342
C           31.69099573775650        2.71621636072977       -0.05302790537888
C           32.96290555324791        3.41664824731261       -0.06151460194987
C           33.92195389305331        2.46758279078758       -0.04759246630156
N           31.89841663345382        1.36943109658957       -0.03490199194579
C           33.23201835389670        1.19108703733890       -0.03104127800024
C           33.89529559536504       -0.05528703914915       -0.01143523950559
C           33.23979004866855       -1.30337299054936        0.00311185851044
C           33.83659281601326       -2.59094624301130        0.02098376960399
C           32.82996324509930       -3.51889461946174        0.03078193664993
C           31.59158026363263       -2.82152149586311        0.01947740668565
N           31.89050320000735       -1.48662227656455        0.00252769659052
C           30.31856649269767       -3.38364083670523        0.02526634337964
C           29.09441862047959       -2.73478630621761        0.01704845625917
C           27.82368043525815       -3.43561035971923        0.02548439580094
C           26.86405874498339       -2.48660157130168        0.01543241401334
C           27.55297409513458       -1.21020393924699        0.00077936973097
N           28.88635075033225       -1.38752292617991        0.00168950306663
H           25.88626415513822        2.75435481929018       -0.04519236006490
H           27.85909368807918        4.57406344888877       -0.07252864005409
H           29.57350712777001        0.71385757447041       -0.02519836273229
H           30.49349083970374        4.45034117750691       -0.07477449928682
H           33.07333039105193        4.48958416335162       -0.07578034233411
H           34.99361499995112        2.58823318537067       -0.04828994521456
H           34.89922434410115       -2.77320609866623        0.02530394869274
H           32.92714493129760       -4.59271193213605        0.04495089822261
H           31.21109705815551       -0.73289359330637       -0.00817664481006
H           30.29205234708222       -4.46893275823910        0.03876634559356
H           27.71391675177286       -4.50860184159110        0.03749660827393
H           25.79259945152919       -2.60813059638766        0.01729702760432
