120
 energy: -202.065691168494 gnorm: 0.000360635046 xtb: 6.5.1 (b24c23e)
Fe          13.93566051706250       -0.04659160159982       -0.00787805524401
C           10.55014791371801       -0.06174319975058       -0.14558486248317
C           11.19647850590574       -1.27549468627743       -0.03161314421411
C           10.51526995452827       -2.53151964674913        0.06016383511964
C           11.46997724984925       -3.49167761726761        0.05244184734127
C           12.73338642375724       -2.82045611205773       -0.05738782871740
N           12.55330143295846       -1.46314722140165       -0.06474941200055
C           13.95391435986251       -3.47339954038960       -0.19000527290241
C           13.96515295942370       -4.95152127572682       -0.28918194981845
C           13.34025810606985       -5.59113185910851       -1.29130976921980
C           13.33092159861675       -7.09037271428496       -1.42051118183950
N           14.31808890394045       -7.70910609612121       -0.53431532198109
C           14.80364355432350       -7.05101450628991        0.56055341150634
C           14.68938731082941       -5.71780612876203        0.71150170938943
C           15.16592759629979       -2.79712534517340       -0.24449193423538
C           16.43183439087775       -3.44044816756465       -0.43437194969168
C           17.37781214689402       -2.47367256884500       -0.35655404651826
N           15.33819127661924       -1.44268544278469       -0.09207108736899
C           16.68746111153792       -1.24333222061986       -0.12645906939640
C           17.34263604382422       -0.02892360150886        0.10501844424367
C           16.66114111192649        1.17663071413036        0.30463114659328
C           17.32140360656178        2.41156471774400        0.59163284055095
C           16.36144702603384        3.36734083962680        0.61908892187999
C           15.11818847233803        2.71346764577470        0.33693585269458
N           15.31473284476864        1.36200840006797        0.18595619503143
C           13.90779723872421        3.37914670429362        0.19164694253064
C           13.89684356996438        4.85734830197960        0.29025189411068
C           13.18402123509725        5.49237885838052        1.23498410349416
C           13.14641310147964        6.99179794974007        1.35733013071258
N           14.19302170479576        7.62058081438355        0.54996875450480
C           14.77501681249520        6.96473127293066       -0.49806555183654
C           14.69135414589269        5.62945727542731       -0.65087225518087
C           12.70823982864410        2.71603994451013       -0.04340093265914
C           11.45277555470723        3.37648419486063       -0.25912965763253
C           10.51085933477360        2.40810085397831       -0.35086504603032
C           11.19282613200953        1.15779482282781       -0.20358598637618
N           12.54023627814662        1.35725922424870       -0.05431779899808
H            9.46679833191852       -0.06666866286363       -0.19171723333178
H            9.44430717626887       -2.64402251513800        0.12229475092627
H           11.34258882856438       -4.56004281508253        0.11991370607717
H           12.80010133921807       -5.05244748151176       -2.06107071450069
H           13.56666102159816       -7.38339831004495       -2.45336432758908
H           12.32336113656500       -7.48561120940931       -1.19378451240985
H           14.25633443564299       -8.71450797368637       -0.47505918756645
H           15.35012713723338       -7.67449858202235        1.26087717238009
H           15.11911523136227       -5.21047913674237        1.56340640224355
H           16.56889847246656       -4.49568340950562       -0.60653968181335
H           18.44823160430652       -2.57002519427707       -0.44268860246634
H           18.38279333168539        2.51741676586423        0.74937426723693
H           16.47485707408364        4.42177648766386        0.81230981024857
H           12.58782358026827        4.94959089568439        1.95916109240122
H           13.29557895897098        7.29078996060055        2.40445777849164
H           12.15537076171378        7.37369448116066        1.04974086291423
H           14.12294858976388        8.62481947744896        0.48092025385844
H           15.36809997004418        7.59279973253309       -1.15505633639981
H           15.19543623970889        5.12484609361253       -1.46267664079171
H           11.32196663972081        4.44382386077264       -0.33559159504459
H            9.44825019264758        2.51144343320203       -0.50469661598431
Fe          27.35054324262276        0.04784895019966        0.00221516584176
C           30.73617997706051        0.09166431171444       -0.12591629100979
C           30.08967050146322        1.25280010651561        0.24516718867524
C           30.77070648489126        2.45977133709883        0.60500678016225
C           29.81596363591821        3.39944442794215        0.80224812655682
C           28.55271225378289        2.76765628917882        0.54956819080573
N           28.73287495400928        1.44346914335672        0.25149806512529
C           27.33228098401737        3.43404989126526        0.55880326983619
C           27.32110455382984        4.89902397175698        0.77904348368759
C           27.94717084088553        5.73865601303424       -0.06173980726304
C           27.95680104915275        7.23067275970894        0.13396256633679
N           26.96862984784420        7.64507092911194        1.13119594596597
C           26.48185589829462        6.76744010733730        2.05878649315717
C           26.59582417560751        5.43287599973611        1.92012517176819
C           26.12035194453992        2.78529544862785        0.35968198239976
C           24.85451130118454        3.45447393696696        0.31145538795281
C           23.90850493242791        2.49351720556184        0.18025196090556
N           25.94804341738853        1.42967482086064        0.21835639966300
C           24.59877540266008        1.24239331710926        0.14170478520076
C           23.94350690256352        0.00665712083150        0.10730783326434
C           24.62490298834813       -1.21370319396592        0.04341919976093
C           23.96453933783533       -2.48140644745519        0.05803768918139
C           24.92444695324382       -3.42080710617001       -0.12052859462408
C           26.16781095904057       -2.72167707345068       -0.25506185524923
N           25.97134399335823       -1.36933758005618       -0.11203492370730
C           27.37831941265902       -3.34070083221989       -0.53924472552629
C           27.38920389445629       -4.80559825504522       -0.76037425271538
C           28.10110355138982       -5.62877866090479        0.02668878160325
C           28.13847749517977       -7.11952554118803       -0.17554897698798
N           27.09262317791929       -7.56009233771583       -1.10003839365622
C           26.51162896608093       -6.69444058583329       -1.98339543020441
C           26.59551304091520       -5.35750686739465       -1.84598836939813
C           28.57806071545013       -2.64277512737877       -0.62524120909466
C           29.83377538498704       -3.24169269660967       -0.97651105869796
C           30.77577512047639       -2.27643415406919       -0.85692779091703
C           30.09361264716832       -1.08683376859019       -0.44518193776477
N           28.74604410690479       -1.31341902625596       -0.34373908623277
H           31.81958192303085        0.10615338577818       -0.16869060451369
H           31.84158822664717        2.55611760876825        0.69108406054732
H           29.94324140965998        4.42844792249991        1.09743588165133
H           28.48818555238867        5.37761653195971       -0.92859488071452
H           27.72234343659127        7.73871289834750       -0.81215586498744
H           28.96413331227563        7.56763623116224        0.44142926336136
H           27.03043846784060        8.61428503081389        1.40499217357771
H           25.93468184162418        7.22622070476645        2.87607049561825
H           26.16515471996213        4.75463701508326        2.64283242010168
H           24.71754467213205        4.52211897828621        0.36910287167223
H           22.83810775872115        2.60612397479320        0.11640320912830
H           22.90310972020831       -2.61865636742761        0.18906351728541
H           24.81093633294658       -4.49210979094234       -0.15868516899349
H           28.69663288345997       -5.25419928268788        0.85102962718720
H           27.98823276633019       -7.63620646375291        0.78288407106390
H           29.12979225522249       -7.42682089028941       -0.55696842257995
H           27.16267463745954       -8.52613391841989       -1.38292751678494
H           25.91911363825533       -7.16672522531088       -2.76039493908853
H           26.09218392500978       -4.69029520287712       -2.53100330072427
H           29.96469985366396       -4.26769249717885       -1.28041097336031
H           31.83855915894156       -2.34455228833903       -1.02819071651858
C           19.96874219148424       -0.01884063151838        0.14371284685307
C           18.74594644209283       -0.02032058992578        0.13291463923020
C           21.31745234782036       -0.01259691691492        0.14385928751389
C           22.54021107184933       -0.00763093133091        0.13318969437381
