118
 energy: -210.284840335094 gnorm: 0.000486363239 xtb: 6.5.1 (b24c23e)
Fe          17.45338935659745        0.10615480669912        0.00003531664757
C           14.05094358123502        0.18545030207545       -0.00506155169297
C           14.71072225997511        1.00093180997678        0.89038668867501
C           14.04275812824568        1.87311785819732        1.80882506459481
C           15.01063134004535        2.51373899269458        2.50680221939408
C           16.26319925422015        2.03231327848049        2.00724865866874
N           16.07207188994315        1.10214625239181        1.02903444816745
C           17.50108245610235        2.49429732971771        2.46171688509646
C           17.51980465775698        3.48053635144316        3.47119992154609
C           17.53290390110134        4.33178148659451        4.33615271292599
C           17.54455445947483        5.32775776141025        5.33934539384555
C           18.74297940128448        5.89956220708676        5.78209815610653
C           18.69776882951437        6.87410099453951        6.76320429082059
N           17.56382015832006        7.29938752497783        7.31416267788677
C           16.42033513978157        6.75962007773502        6.89988863406255
C           16.35620699259103        5.78047846846417        5.92464461208844
C           18.71752561981851        2.03629497845370        1.95510198623588
C           19.98490075054480        2.52277803739311        2.40289185209296
C           20.92789109229902        1.84589768734238        1.70325231773679
N           18.87904654082256        1.07535320219447        0.99352376383947
C           20.23037089817170        0.95107189349761        0.83411154575087
C           20.87793331487662        0.04668450013883       -0.01457105486837
C           20.19250930886441       -0.84853392306223       -0.84304811860714
C           20.85170845698453       -1.77254909551674       -1.71153372977508
C           19.87934532404140       -2.44797887070393       -2.37117234855186
C           18.63279104768380       -1.92568525573188       -1.90565111112975
N           18.83577627665500       -0.95220330627509       -0.96473143553156
C           17.39628634306450       -2.35510083767987       -2.38802536322778
C           17.37296543776667       -3.36757835064907       -3.37101168977637
C           17.35958932963920       -4.24162564300770       -4.21288716293669
C           17.34093813963618       -5.26086029263731       -5.19227119468133
C           18.52229757476216       -5.87792157566076       -5.62013446074368
C           18.44893570430684       -6.87345055472095       -6.57809344695782
N           17.30310282177148       -7.27820821109366       -7.11999188048240
C           16.17580518447632       -6.69581531837505       -6.71944429070030
C           16.14000398849344       -5.69248766703167       -5.76752331742146
C           16.18050939914443       -1.82471086730680       -1.94897637943909
C           14.90913435214383       -2.24399518786686       -2.45675276081385
C           13.97102331881375       -1.52660656060005       -1.79366243962489
C           14.67570733013132       -0.67611378237137       -0.88232830024956
N           16.03033122032224       -0.86595443793260       -0.99142027516418
H           12.96718939377802        0.21870797142968       -0.01526202451189
H           12.97185856782985        1.96843440959093        1.89251827316980
H           14.90568312915630        3.24966350554375        3.28782720526282
H           19.68900458318003        5.58261980806386        5.36007656838243
H           19.61194431741211        7.33601347351358        7.12472680309921
H           15.51434279407860        7.12954385789244        7.37117507363306
H           15.40326642552584        5.36783290397810        5.61622087035420
H           20.11947652581295        3.28245694144423        3.15589822558618
H           22.00039118090866        1.92929143857761        1.76739398944507
H           21.92057440186811       -1.87633900193280       -1.80129240865593
H           19.98159097762410       -3.22437749561834       -3.11209940222834
H           19.47701862427559       -5.57885670575776       -5.20467225508383
H           19.34929534487266       -7.37017689114966       -6.92797222671004
H           15.25947132814078       -7.04999230992820       -7.18275163959517
H           15.19943819470741       -5.24515530186242       -5.46965890700378
H           14.77251654556471       -2.99130747452584       -3.22191070353872
H           12.89787881101727       -1.55770274739016       -1.89514633519373
Fe          28.33261887287263       -0.05446165582923       -0.09117267034635
C           31.73506605749077       -0.09070311506946       -0.16101415364937
C           31.07533786990227       -1.27788772403459       -0.40072216839303
C           31.74333067642767       -2.51395359886493       -0.67698563247791
C           30.77548334887197       -3.44197153524725       -0.86774842205632
C           29.52288552466286       -2.76605960061872       -0.71146386162269
N           29.71396413808363       -1.44889973441264       -0.41625547982540
C           28.28509599859155       -3.39350709655125       -0.87456300443911
C           28.26679036860778       -4.76593106225054       -1.20346064373384
C           28.25428170032675       -5.94493728305755       -1.49104756633988
C           28.24200222104988       -7.31700981202796       -1.83126510066350
C           27.04305417822828       -7.98937662860034       -2.09523634621360
C           27.08718069600806       -9.33143384544461       -2.42877834526472
N           28.22057897441936      -10.02341992705074       -2.51128848222146
C           29.36456758140114       -9.39185407084092       -2.26035970384548
C           29.42978147311968       -8.05253836590721       -1.91989057565368
C           27.06855770767981       -2.72373328957028       -0.74227258420717
C           25.80124123410039       -3.35781251060088       -0.93005508991682
C           24.85821021510807       -2.40968240090303       -0.70951237761293
N           26.90695634533161       -1.40496692403837       -0.41225956089039
C           25.55565357548159       -1.20427459569226       -0.38818259960509
C           24.90801404172457       -0.01157485694627       -0.04822555871958
C           25.59334168148953        1.15921746954696        0.29404772553715
C           24.93402145251495        2.37901524991956        0.64047958384749
C           25.90629624304686        3.29206826939935        0.88096513161030
C           27.15291586590107        2.62440731252300        0.67227132984743
N           26.95006808793411        1.31701562886139        0.32044288268092
C           28.38935644997810        3.25889877388182        0.79323553466749
C           28.41256206805880        4.62234093899090        1.15710342378243
C           28.42644310594194        5.79332684570918        1.47571330086272
C           28.44512100616597        7.15669194850046        1.84889189652148
C           27.26367166658122        7.84036213544592        2.15911873634897
C           27.33687314550044        9.17330949169182        2.52247687758687
N           28.48263906327546        9.84620961276836        2.59205980473356
C           29.60999896966542        9.20379685432600        2.29746642483991
C           29.64596017638529        7.87204180183001        1.92431680965443
C           29.60522671468257        2.60983887083950        0.56391202628790
C           30.87655900974155        3.26093227367641        0.66302704918975
C           31.81478336794186        2.32341103429233        0.38882366788853
C           31.11019545684012        1.10457169669691        0.12725963312925
N           29.75554524632547        1.29571266420831        0.23350408451490
H           32.81882607271156       -0.09902345272870       -0.19453799403809
H           32.81422952737795       -2.63468825824755       -0.71589351738330
H           30.88043309540354       -4.49018133997659       -1.09760273478146
H           26.09748595365063       -7.46370350528685       -2.03968732174267
H           26.17256351766273       -9.87789509691532       -2.64004398783959
H           30.27008531571842       -9.98684893937293       -2.33649545103974
H           30.38313461679558       -7.57688720669048       -1.72399716554526
H           25.66670653374807       -4.39421863527080       -1.19465968005111
H           23.78572766765804       -2.50743316492120       -0.74883774697617
H           23.86514298201578        2.50926672763581        0.68336778723782
H           25.80395915438350        4.32663437076351        1.16631700149142
H           26.30901524833718        7.33020273671066        2.11539351764983
H           26.43646346224592        9.72827794037254        2.76960186180454
H           30.52628037215533        9.78324697146769        2.36402754058548
H           30.58658607116638        7.38706076519180        1.69299718166633
H           31.01309301995971        4.30137970876970        0.91087713449910
H           32.88794706719138        2.42639701968885        0.36387963264782
C           22.28406973074990        0.02912143697422       -0.02881747602886
C           23.50187828658114        0.00938423705223       -0.03965151818411
