201
 energy: -386.367477241722 gnorm: 0.000963908653 xtb: 6.5.1 (b24c23e)
Ni          27.80470181353185        0.09755986770216       -0.97953716370869
C           24.43734062958361       -0.12107256283593       -0.66624595363758
C           25.00935762569481        1.13388613568993       -0.66726516601117
C           24.25933497394286        2.34764775006596       -0.55297133796216
C           25.16008668415628        3.35028882061845       -0.43005445818815
C           26.46071605252163        2.74824444568250       -0.47563346132338
N           26.35770745808117        1.39286790490700       -0.65828724132989
C           27.64905121285191        3.45354246382568       -0.33004732399027
C           27.57837793636821        4.90052877308253       -0.01459086540053
C           26.97715096257697        5.33535747393887        1.16309636336974
C           26.90962872220985        6.69556697524975        1.46197605813564
C           26.25787286774496        7.09658821970723        2.73447434050805
O           26.25244920820233        8.42158833615116        2.93909102245339
O           25.77232255208930        6.32536963743114        3.52173993882735
C           27.44239842865589        7.63308860934978        0.57735403384598
C           28.03726490212825        7.20269850256981       -0.59823558967077
C           28.10686487291457        5.84863068905248       -0.89389639337958
C           28.89500778560997        2.86358929590777       -0.49481551796592
C           30.13609761918503        3.56576292855684       -0.36632580797438
C           31.11275549674373        2.70567291559926       -0.74289771274838
N           29.11807925131830        1.56280812230103       -0.88749901683477
C           30.46977981029628        1.47379122195820       -1.07319070883368
C           31.15580800848096        0.35332028086303       -1.55221054692772
C           30.53379892871038       -0.88258121730094       -1.74595313221008
C           31.23081423750749       -2.04963209035898       -2.18444632286601
C           30.35623295118221       -3.08057726465723       -2.09554315273736
C           29.12407805280172       -2.53717675094174       -1.60938620855687
N           29.23500262675600       -1.17733935005623       -1.43251666243562
C           27.99453186390007       -3.29976537307192       -1.34125417428682
C           28.09285623070106       -4.77452405501285       -1.46093451441409
C           28.97134380683632       -5.48990983344502       -0.64421716622406
C           29.06563883133524       -6.87083250353294       -0.74677020043305
C           28.28809237096600       -7.55351253844469       -1.66721132690808
C           27.40990093482585       -6.84910637004405       -2.49211379912729
C           26.59507330532440       -7.61657739831845       -3.46743004309593
O           25.77881364444221       -6.85034663413375       -4.20547805977171
O           26.64291297801537       -8.81263148865687       -3.59982189678230
C           27.31335819731012       -5.46298159400894       -2.38779552307785
C           26.77355229436905       -2.73498324011253       -0.99544476909355
C           25.57995273680478       -3.48960463924252       -0.74546368239901
C           24.57523710214942       -2.59507134318241       -0.59516371402756
C           25.16017713509894       -1.29518887775569       -0.72096058512350
N           26.51248772167755       -1.38880802011782       -0.93366890190124
H           23.35906915129840       -0.18976761336522       -0.58249946820815
H           23.18248443042918        2.40320380527045       -0.55704933245126
H           24.97439940109033        4.40689266818942       -0.32566347635109
H           26.56761468567343        4.61977259732813        1.86769514800792
H           25.81194612086055        8.60123972233684        3.78563231805320
H           27.38757499121083        8.68953519671936        0.81040844567091
H           28.44896331819512        7.92622185840026       -1.29273652753088
H           28.56078197748416        5.51995974716500       -1.82208900438665
H           30.23814951932230        4.58456930279626       -0.03002985701488
H           32.17654383614892        2.87370039171160       -0.78909801441013
H           32.25977541471980       -2.06315516246330       -2.50582730031469
H           30.51741182463302       -4.11667258124259       -2.34483914785923
H           29.57255709737624       -4.95761329779753        0.08437834520067
H           29.74839186517807       -7.41342685576874       -0.10293794259238
H           28.34903408173584       -8.63192390972939       -1.76036582487125
H           25.28457983765277       -7.42342996498749       -4.81390748709815
H           26.64205816166477       -4.91707547869371       -3.04004930265391
H           25.52890482387464       -4.56514201840846       -0.69724232011504
H           23.52978383395756       -2.77891503842962       -0.40540127203810
Ni          62.75134233809244        0.22935239112071       -0.65699347879645
C           66.09409924726634        0.07653698794316       -0.11795248873499
C           65.45991270783577       -1.05374652353783       -0.59005750119115
C           66.13747211234441       -2.27836279280289       -0.88976829165572
C           65.18091774432332       -3.18910185075369       -1.18546298638017
C           63.91824956870013       -2.52075141511214       -1.06120678643103
N           64.10297505599165       -1.20022983032780       -0.73801902085450
C           62.68689135136210       -3.14876002658159       -1.20175264473200
C           62.65873684967785       -4.61293445522997       -1.43116587836182
C           63.20278284139061       -5.48706017802437       -0.49440989739280
C           63.17875029042256       -6.86375803263479       -0.71442479770594
C           63.77501289929764       -7.74424429700518        0.32162971662789
O           63.70133680098760       -9.04938068147543        0.02257619415010
O           64.28341030607916       -7.34893857341164        1.33930901518486
C           62.60919752084923       -7.37596704779455       -1.88002130902385
C           62.06840971662924       -6.50750922323931       -2.81512509698741
C           62.09099143310280       -5.13767138737470       -2.59486670561158
C           61.48352041361486       -2.45673494375255       -1.15466103318349
C           60.19832359741456       -3.07689797119698       -1.26913971979343
C           59.28529142546640       -2.07717601716256       -1.32628078926168
N           61.35113845661566       -1.08846110673259       -1.08014640633487
C           60.01207313741565       -0.85214920301329       -1.22646868635472
C           59.41508535474874        0.40744074228330       -1.33754616388130
C           60.12569482141767        1.59518558022476       -1.14156249091933
C           59.53024225889191        2.88974763213378       -1.23663550133441
C           60.46993554224829        3.78011481920596       -0.83621228534326
C           61.63770917797589        3.02456094333721       -0.49790119569786
N           61.42659034558218        1.68436648612423       -0.72795499440760
C           62.79587632611408        3.58192299336737        0.02830276684456
C           62.80791648746559        5.03252598119909        0.33621097045132
C           61.93173249233185        5.56147103707424        1.28632695116343
C           61.94197774999566        6.91830640967491        1.57874327370538
C           62.82235661026505        7.76331755778959        0.92401432953346
C           63.70009296087308        7.24692979924408       -0.03042092225565
C           64.62613531735376        8.18524373552527       -0.71297546893700
O           65.42397470394290        7.59232017216400       -1.61322607106690
O           64.67620332645691        9.36873746126168       -0.49541176191795
C           63.69274106417461        5.88429116355086       -0.32126688860952
C           63.94782804822997        2.84052201655401        0.25683623337946
C           65.15798241668196        3.38277166040292        0.80252691949192
C           66.08934237382171        2.40243526413916        0.74059320211039
C           65.44273527658868        1.25634307639910        0.17803600452431
N           64.12135407722671        1.52143725922245       -0.08059934042030
H           67.16436980750581        0.03008582453437        0.04559016485757
H           67.20789987844465       -2.40620796627308       -0.86560384309922
H           65.30621695175211       -4.22177004073188       -1.46769356159916
H           63.63828003097938       -5.10782545651330        0.42358803026489
H           64.10976353243258       -9.55446120811462        0.74434880184035
H           62.59306423593640       -8.44566545238679       -2.04997641661528
H           61.62735832346772       -6.89833892818516       -3.72508308752739
H           61.67912514384783       -4.46334197092992       -3.33734959203270
H           60.02562003431915       -4.14034433096473       -1.29769449123231
H           58.21389650864484       -2.14771215246712       -1.42264215210368
H           58.51964148003580        3.07650177348314       -1.56217036288390
H           60.39161748248667        4.85352482251844       -0.77897344664160
H           61.24912579690884        4.89938562507600        1.80720092987668
H           61.25964344738971        7.31427695842629        2.32220504249480
H           62.84285220114564        8.82561987252212        1.13958704792554
H           65.99417825170308        8.26914391214817       -2.01274250887839
H           64.36600547346067        5.48761685338717       -1.07192698597326
H           65.26810048793809        4.38646188811445        1.17978987875727
H           67.12295911465820        2.43208585617449        1.04646056880522
C           32.53827624992032        0.46481746641300       -1.77905569189128
C           33.74616664363283        0.58576704433955       -1.93200778909550
C           35.07908548889887        0.73811241937621       -2.02338349329275
C           36.29645242897777        0.90409738176574       -2.03856539516941
C           37.62010138933775        1.10668012938203       -1.94232036148356
C           38.81942595332526        1.31743445380998       -1.79670837186431
C           40.11222962899336        1.60190959709070       -1.43249609752533
C           41.20123088841727        2.39630342378908       -1.67372902722147
C           49.18019729586375        0.70934030952171       -2.01493828701530
C           50.39124281491024        0.71104997452177       -2.19665973199140
C           51.72971527956101        0.69651379605554       -2.30144905784883
C           52.96018958466151        0.67547113857765       -2.29289989072072
C           54.29509773247702        0.63691967789360       -2.21090961972296
C           55.51579338553449        0.58797938377119       -2.06316022721842
C           56.84141746491301        0.53878765424766       -1.85476034932715
C           58.04207371081447        0.48046814824410       -1.62278717441568
Ni          44.55055553729616        0.67530414469744       -0.79271793793184
C           41.16249665128212        0.91777088127131       -0.72980523713177
C           41.72404310664597       -0.35494487448105       -0.91694021134912
C           40.96186910899376       -1.54330746944431       -1.05844966229251
C           41.85828643208412       -2.56622132417752       -1.14549964217922
C           43.15818518380979       -1.98398658334537       -1.08433576594027
N           43.05964510982632       -0.61901105184586       -0.90122191863814
C           44.33512771419299       -2.66731046936364       -1.37830090514953
C           44.25100050288179       -4.13522380897796       -1.57277037736053
C           43.88043407979449       -4.96164486137262       -0.51631448351380
C           43.79974685917625       -6.34222800282189       -0.69473953859804
C           43.40297098729439       -7.17274321669795        0.47050962771868
O           43.36369253814912       -8.48595831824958        0.20315476657234
O           43.13626595707750       -6.73280220407932        1.55925667388456
C           44.08365587011885       -6.90430975439976       -1.93922003025634
C           44.44254271930450       -6.08165171310652       -2.99533939280821
C           44.52664472281902       -4.70810141132920       -2.81656242539879
C           45.55499208348937       -2.03644576321627       -1.58783988095270
C           46.74983192583601       -2.69810556428155       -2.00655983249687
C           47.69886865123512       -1.73916543801558       -2.16214407935464
N           45.78746262066983       -0.68062645008399       -1.45759446011868
C           47.09616156109094       -0.50172353019191       -1.79210138433289
C           47.82016863421493        0.70038100524368       -1.66748550865173
C           47.29570165959149        1.81502926070169       -1.01606197955291
C           48.06180469968151        2.96950584680480       -0.65432014080019
C           47.28333205072796        3.71492311437556        0.16527999222170
C           46.02159042517671        3.03961846663977        0.26901809270051
N           46.04094637693994        1.88595403281564       -0.47036405215213
C           44.92464070803693        3.51807114080491        0.97881444579484
C           45.11936633553089        4.65184287478614        1.90691921906234
C           44.38770184502692        5.83496124997435        1.76920702014172
C           44.58842717560876        6.89736889595445        2.63919928266826
C           45.52539880925698        6.79810917659836        3.65410362175035
C           46.27181528140718        5.62704932520757        3.79588493615389
C           47.27569347424748        5.56364032270870        4.88787336453269
O           47.95104102830151        4.40612737323071        4.92981709558814
O           47.48390948889694        6.45451394332587        5.67122104824841
C           46.06880073735601        4.55969043496298        2.92451930329463
C           43.64386179680366        3.01624044758231        0.73826102951602
C           42.44244389266093        3.50938498754508        1.37017604414245
C           41.39959774780640        2.95817976856735        0.73344825014136
C           41.94029759366372        2.11450889312265       -0.34515935790955
N           43.35115228060845        2.09516271956065       -0.21129398610694
H           39.88492165520994       -1.58472883711727       -1.08403519267445
H           41.65538818259954       -3.61603262038427       -1.28081479894067
H           43.66371080182521       -4.54163822321608        0.45977916652478
H           43.09838322853733       -8.95718169945465        1.00964866070832
H           44.01914756694117       -7.97692317497344       -2.07617118265828
H           44.65698213090613       -6.51111852579002       -3.96738897549698
H           44.79123898575503       -4.06912456305336       -3.65151781039295
H           46.85089999860342       -3.76026497065266       -2.15866373853620
H           48.72650970164835       -1.85475080757775       -2.46665522300832
H           49.07279656898098        3.15909001938781       -0.97728454557436
H           47.51745622604557        4.65581000101870        0.63623992859016
H           43.67417278817120        5.93063827819850        0.95839770475158
H           44.01403957623102        7.80863290226971        2.51691308838978
H           45.69574117961684        7.61950416236376        4.34079177825685
H           48.58364015424507        4.44458797990803        5.66547794219129
H           46.64099101343341        3.64726099731884        3.04447576872469
H           42.42702817864279        4.18265975396039        2.21209210270814
H           40.34255522910570        3.09009574465610        0.89611864446960
