169
 energy: -300.294178483232 gnorm: 0.000716361253 xtb: 6.5.1 (b24c23e)
Fe          24.76333223028948       -0.00848251942978       -0.00684146986443
C           21.37453920735058       -0.02134149573899       -0.02070829850034
C           22.02302705735437       -1.23661880271617        0.05764647049449
C           21.34325463141543       -2.49454199422673        0.13479808448810
C           22.29631445105256       -3.44065252059892        0.30468246209418
C           23.55852070537577       -2.75899859787408        0.32670778153482
N           23.37833889002976       -1.41339204171970        0.15395161274068
C           24.77111299979939       -3.38139060733183        0.60260075779822
C           24.77309221878294       -4.84213202092534        0.85396492391502
C           25.10337712070288       -5.36267998195406        2.10399551761910
C           25.09020052732218       -6.73661821361309        2.28711938718658
N           24.78014089664250       -7.59329055050033        1.31950709890341
C           24.46598509294388       -7.10435053453938        0.12426728785984
C           24.44552938883205       -5.74680789038358       -0.15467291378100
C           25.97772883514128       -2.69895476724152        0.65297710630975
C           27.23902053661644       -3.32184607552410        0.92637006470208
C           28.18839764961138       -2.36902564940950        0.76685188082133
N           26.15899137979439       -1.37118318841844        0.34577797504044
C           27.50641237899153       -1.17107198503730        0.38756462354705
C           28.17174953616076        0.00171552568309        0.00958313041601
C           27.50051166116378        1.17156911166189       -0.36585657991134
C           28.17466266179531        2.36578151569204       -0.76990449706325
C           27.22041207475593        3.31330367394357       -0.93384580194554
C           25.96606480997758        2.69434834086749       -0.62297909064142
N           26.15265369043220        1.36829695059763       -0.31338587662737
C           24.75273500746814        3.36713257660024       -0.60424294150892
C           24.74915233011867        4.82640225804609       -0.85666412296192
C           24.08104143846518        5.37182731169931       -1.95211736009727
C           24.10935997649324        6.74404541081987       -2.14508453619539
N           24.74242072767291        7.57779461370931       -1.32616509432555
C           25.37923765135537        7.06596016076314       -0.27781845198295
C           25.41434403003828        5.70757360405726       -0.00508111141710
C           23.53989429279275        2.73132284976258       -0.36103916656668
C           22.27632344617260        3.40800311322279       -0.30260902637502
C           21.32874071525339        2.45400739812936       -0.14540578263539
C           22.01504441204166        1.19827674972830       -0.09527978644214
N           23.36919595161529        1.38395924335917       -0.19345316713981
H           20.29035436431365       -0.02482537817767       -0.02001540499029
H           20.27329957960982       -2.61615905100848        0.07674502539875
H           22.16826577788159       -4.50440120990282        0.42231737115431
H           25.35291457772950       -4.70070347862368        2.92455123657404
H           25.34051697484376       -7.16690126185257        3.25238101008957
H           24.21879093857106       -7.82950564505915       -0.64554605982088
H           24.19276580785621       -5.39286268628881       -1.14698652122902
H           27.37228555530957       -4.35821234921258        1.19029752598771
H           29.25704828034585       -2.45795525733349        0.87792434081096
H           29.24092950429803        2.45297596684872       -0.90327518015585
H           27.34334293213332        4.33877094731716       -1.24191146648865
H           23.56044483217578        4.72896149211336       -2.65181352734281
H           23.60135104610696        7.19235646080930       -2.99391199009243
H           25.88467069001451        7.77276816378246        0.37373509014556
H           25.93805178004003        5.33509852230564        0.86722264892069
H           22.14504618950155        4.47564894767908       -0.37140197385716
H           20.25939219993145        2.57001723117979       -0.06793275973918
Fe          51.59846718153528        0.05245813844089        0.00342155034663
C           54.98910587984567        0.07842024277090        0.00802132803583
C           54.33675258553848        1.28214446839781       -0.16096841570892
C           55.01196810885474        2.53628547696136       -0.30806128833009
C           54.05524766889133        3.46784872932896       -0.53047367550514
C           52.79738294337655        2.77832198955140       -0.52825083651334
N           52.98070907256677        1.44764236881258       -0.26785629696354
C           51.57603761871294        3.39042153683216       -0.78877165241510
C           51.56429161859486        4.83236259890385       -1.12756475148803
C           50.92225571444371        5.75980615973479       -0.30812383651406
C           50.93848162103588        7.09938196474857       -0.66309732193247
N           51.53566413918229        7.54999147436817       -1.76162418580363
C           52.14684165852074        6.67159260353591       -2.54981674854362
C           52.19169435452845        5.31366414734934       -2.27562276002889
C           50.36662274647045        2.71278421875119       -0.74308410804665
C           49.10334209270739        3.31112034859789       -1.05811310541520
C           48.15771894619836        2.36802002018057       -0.83174164020879
N           50.19314227842874        1.40248074056187       -0.36520735026042
C           48.84650973845682        1.19658660595233       -0.38786450272615
C           48.18734846720981        0.03073940012804        0.02226750256997
C           48.86398830874762       -1.12700996227390        0.42622930158671
C           48.19122509817719       -2.32055865137214        0.83450018333203
C           49.15037878345090       -3.25326389765486        1.04545111446339
C           50.40772253921594       -2.62183566894833        0.77352707345309
N           50.21411352963081       -1.30980761039661        0.41078104130650
C           51.62507695960644       -3.28616920274487        0.78628148830550
C           51.63701284162389       -4.73276126204011        1.10979165677348
C           51.99436029954738       -5.68075093607877        0.15236063447688
C           51.98226009928965       -7.02356072659546        0.49549719223214
N           51.64951983646054       -7.45834123099871        1.70654911544954
C           51.31215677926076       -6.55999220985148        2.62595854129049
C           51.28809167223631       -5.19652246644959        2.37693112894549
C           52.83484050801373       -2.65995075905047        0.50691758620470
C           54.10604069050326       -3.32348187398950        0.54953261968789
C           55.04914223080370       -2.37615652623675        0.33671090013980
C           54.35380885552034       -1.13570063898296        0.16842002655822
N           52.99957953583050       -1.32457288086972        0.25674266167016
H           56.07326062779384        0.08688182542075        0.01545345451341
H           56.08062717472802        2.66676087737315       -0.24560785034428
H           54.17635984342007        4.52838407474614       -0.68027220317884
H           50.43032953358646        5.43763779347439        0.60186040691113
H           50.45027253135669        7.84164664828479       -0.03844725918091
H           52.62224700762969        7.07040094205881       -3.44112236122367
H           52.69326366517168        4.63224169429007       -2.95230497343654
H           48.96884880006171        4.32025775698300       -1.41175309126788
H           47.08887634781725        2.44367380670460       -0.95032316840710
H           47.12197474812590       -2.42027234095471        0.92947277386797
H           49.02703753590387       -4.28123738927396        1.34463411188988
H           52.26299444887572       -5.37149728827335       -0.85063199614823
H           52.25095777958739       -7.78186929835885       -0.23408673699884
H           51.04785767983817       -6.94649019840721        3.60589782514920
H           51.01510645381167       -4.49914011689130        3.15984168561895
H           54.24571192919549       -4.37608515878139        0.73483590353358
H           56.12144835786897       -2.48555723738980        0.30282272846637
C           30.79670208667102       -0.00619535240030       -0.00408496444171
C           29.57288775658289        0.00289938995973        0.00478557548868
C           32.14283884208545       -0.01068781084664       -0.01544477230208
C           33.36689928312954       -0.01881606043493       -0.02162411061530
C           44.21801555670047        0.01594120028064        0.00440557326319
C           42.99360501751701        0.01069557114231       -0.00910674378660
C           45.56314205955553        0.02200250861335        0.01544447002299
C           46.78742095984823        0.02123215509944        0.02000196157731
Fe          38.18118113266535       -0.01985799596044       -0.03606409775963
C           34.76697019972311       -0.02355142928731       -0.02981634131388
C           35.43945961213443       -0.90180975115917        0.82998801607045
C           34.76800774165115       -1.76991589461432        1.74496164312314
C           35.72511063991467       -2.53047196666048        2.33033942547723
C           36.97576007009668       -2.12862619913318        1.76030857315434
N           36.78700104354035       -1.10045323885018        0.86958475559919
C           38.19004444954211       -2.74433138874023        2.03799860997974
C           38.19710704687562       -3.91437287676574        2.94549199994076
C           37.50880768079750       -5.08420417809781        2.62692970618568
C           37.54885383611698       -6.15212384284964        3.50959550827130
N           38.21182884367243       -6.11568249071041        4.66085906632843
C           38.86775327792195       -5.00289664712959        4.97344278916007
C           38.89323807593320       -3.88591466855154        4.15331779575440
C           39.39978354557714       -2.31166158357336        1.50962253486440
C           40.65374675036875       -2.96352962488927        1.74027175898662
C           41.60594321563860       -2.19235268451583        1.16068134992474
N           39.58165522924433       -1.17884830046507        0.75445886859040
C           40.92813969238258       -1.08040304643854        0.57274809742289
C           41.59483650037537        0.00051920291639       -0.02039321109096
C           40.92010173887277        1.06844209702633       -0.62721689668519
C           41.58951021431110        2.18435450269436       -1.21724969876119
C           40.63407351422509        2.93593861982040       -1.81692531719581
C           39.38630818179443        2.26953872543978       -1.59431416446621
N           39.57451596715563        1.14623644246577       -0.82682341147020
C           38.17571056245041        2.68573897843401       -2.13432843757199
C           38.17663708011877        3.84946040964285       -3.04981897365054
C           38.88230671486190        3.82095390726725       -4.25211991728305
C           38.85030151772104        4.93200106134079       -5.08003722615679
N           38.17941747199361        6.03936347551903       -4.78005907349386
C           37.50773255976022        6.07615918274446       -3.63389664536827
C           37.47319773426072        5.01384183624437       -2.74426223747113
C           36.96491651087970        2.06492288519113       -1.85304778091459
C           35.71119937321021        2.45830040006199       -2.42234579510156
C           34.75738303382030        1.70612537826785       -1.82098954786052
C           35.43420499679220        0.84867945145114       -0.89996397387819
N           36.78142302363899        1.04613437582935       -0.95025007060228
H           33.70241853378607       -1.78493024046441        1.90755046043147
H           35.60450803908078       -3.29302652197034        3.08224359963958
H           36.96406270827468       -5.16223606625091        1.69368685951771
H           37.02592590684961       -7.07619951425421        3.28143712528232
H           39.39728035126559       -5.00325541354365        5.92162709634506
H           39.43293773229829       -2.99566897126510        4.45338989887634
H           40.77963557918754       -3.89137817909799        2.27384176150807
H           42.67212542424185       -2.34849825138140        1.12869630541577
H           42.65305533129056        2.35523430316664       -1.17417739418716
H           40.75359226674790        3.86011330010771       -2.35828185356894
H           39.43456048851476        2.93502170215371       -4.54189108739313
H           39.38745569209900        4.93224447490155       -6.02391030560414
H           36.97183759263550        6.99534950115022       -3.41634228004273
H           36.92081428379294        5.09241229964319       -1.81555254987917
H           35.58603790048317        3.21047167449557       -3.18390902813101
H           33.69093671717420        1.71883067082455       -1.97805715329308
