416
 energy: -728.659577235103 gnorm: 0.000950137069 xtb: 6.5.1 (b24c23e)
C           56.54881242077836       -0.02442130116807       -0.02434924851622
C           57.16215996608183       -1.26971653603632       -0.07622589545174
C           56.53597163097535       -2.54786969280490       -0.13704418491812
C           57.51899007906272       -3.49646299306122       -0.17253809033755
C           58.77647095482916       -2.82808558117394       -0.13471484649299
N           58.51007355887607       -1.49061815749155       -0.07727266128713
C           60.03996112757359       -3.40735280254943       -0.15230792685669
C           61.26472078010364       -2.75672330209563       -0.11673906210646
C           62.53820182649095       -3.45431330923526       -0.14084183853692
C           63.49440968339764       -2.50369195434414       -0.09505863415946
N           61.46729061742063       -1.41217516977623       -0.05697784345732
C           62.80101942471206       -1.22899452169570       -0.04286375545331
C           63.46527817636026        0.01416305499822        0.01363429769759
C           62.82661321970722        1.26763823111978        0.06698633892758
C           63.44781376651969        2.54443646672637        0.12708498932721
C           62.46113499592489        3.49069675277691        0.16613868640986
C           61.20770832176598        2.81807692064101        0.13069527502614
N           61.48120479514939        1.47808191451897        0.07132002468004
C           59.94543453910725        3.39765381948589        0.15108561411185
C           58.71975046463079        2.74432274799360        0.11479192499212
C           57.44009751069568        3.43588878578691        0.13875789361208
C           56.48974074754324        2.48095915746320        0.08927664451582
C           57.18976113382352        1.20732262568794        0.03545919477735
N           58.52942586114585        1.40554102181319        0.05263122761344
H           55.46396973710996       -0.02249595920789       -0.03121660604361
H           55.46919011070626       -2.70540357940689       -0.15106368570316
H           57.39801516681312       -4.56705869720889       -0.22075113164422
H           59.21209775249128       -0.75924190982681       -0.04028445802101
H           60.06171099525233       -4.49141726630246       -0.19984342180712
H           62.65136231547982       -4.52610581360982       -0.18693769857172
H           64.56629039894196       -2.62245660195261       -0.09511905011912
H           64.51391132907253        2.70535539432105        0.13857858677017
H           62.57932028675450        4.56142640856464        0.21505993867775
H           60.78163849565814        0.74400509722305        0.03529625310719
H           59.92477361902819        4.48158543667430        0.20024376658465
H           57.32174055683610        4.50719633489209        0.18698387570632
H           55.41668174027541        2.59280535462728        0.08784400143359
C          208.61309183846612        0.04418179986529       -0.00887872560993
C          207.99548423757474        1.27323214797057       -0.20289113904702
C          208.61735827829804        2.53901787107724       -0.40427790779529
C          207.63112668300153        3.47359521192980       -0.55029429676763
C          206.37589388276996        2.80858099013572       -0.44281165918496
N          206.64680982816600        1.48710668808539       -0.23446506780448
C          205.11041949012488        3.37711258351016       -0.52995135451417
C          203.88793834200084        2.72957192722905       -0.42583281745464
C          202.61197452181983        3.41492489505826       -0.53153826299003
C          201.65915099189414        2.47149157626464       -0.38265751609695
N          203.69017183836587        1.39930268688064       -0.21688881493871
C          202.35709364695981        1.21341268335567       -0.18641109804108
C          201.69726408539688       -0.01849395572006        0.00548942670308
C          202.34013562041440       -1.25584636447362        0.19909956631567
C          201.72318903499342       -2.52057368535693        0.39804406673082
C          202.71303075485702       -3.45266374358872        0.54593477524733
C          203.96420384159228       -2.78308652718451        0.44108074792266
N          203.68623647742945       -1.45912129638217        0.23194041719149
C          205.22845560999130       -3.35151239674748        0.53152253752575
C          206.45184512666199       -2.70100806463150        0.42848225600262
C          207.73393918049698       -3.38003590636143        0.53565453286937
C          208.68093893828146       -2.43247483902067        0.38455699102654
C          207.97642547457110       -1.17584589038731        0.18548134380180
N          206.63744672354440       -1.37669695480434        0.21828156722227
H          209.69795561749481        0.04606983989892       -0.01052496408433
H          209.68362080469689        2.69833483607322       -0.43141805233830
H          207.74848131186064        4.53247839522831       -0.71800994025507
H          205.94721513053619        0.76169064803508       -0.11846385214900
H          205.08490749109635        4.44892317412969       -0.69875441799184
H          202.49499828470806        4.47440237401511       -0.69735462755354
H          200.58684247392816        2.58516039045515       -0.39916088445689
H          200.65762398671643       -2.68347708473975        0.42315787533793
H          202.59842349621962       -4.51178377230729        0.71312028364573
H          204.38336131619837       -0.73077160376342        0.11757559515970
H          205.25287808947888       -4.42312911604871        0.70118287347065
H          207.85605534904445       -4.43875125563909        0.70370825460323
H          209.75440249342364       -2.53912779675568        0.40084291612153
C           68.66516523535402        0.03668326994952        0.01463747512666
C           67.43654339438390        0.03041539747847        0.01728784862355
C           66.09307670202324        0.02479693568542        0.01873133042609
C           64.86896717981202        0.01693316128126        0.01695210883860
C           70.00847122643269        0.04154748043557        0.01258742998293
C           71.23282644950507        0.04310923465614        0.00885308870771
C           84.80925058281981        0.00931984068698        0.02665675013837
C           83.58041728390246        0.00951343159597        0.02042622331934
C           82.23764887941240        0.01145803036224        0.01505334480366
C           81.01321999698942        0.01511988742496        0.00925986958731
C           86.15200363588097        0.00649573445508        0.02870261153668
C           87.37639582020506        0.00290410450621        0.02909431748486
C          100.94431263316925       -0.00347842309025       -0.02282511616937
C           99.71561239755793       -0.00713321953096       -0.02590432972664
C           98.37306352047264       -0.01113862618588       -0.02345050378656
C           97.14869974132399       -0.01152983254442       -0.01963113679222
C          102.28684885705587        0.00109928786878       -0.02200952480723
C          103.51121390758370        0.00434147129247       -0.02103141577384
C          117.07300869628773       -0.01162946106248        0.00080945316309
C          115.84431354080228       -0.00664203628536       -0.00284294529266
C          114.50188712223846       -0.00624960507525       -0.00202833896122
C          113.27764133563750       -0.00236340387077       -0.00121046789749
C          118.41543172273960       -0.01292873520370        0.00464639159721
C          119.63973609388825       -0.01431856515651        0.00519991661050
C          133.19788402914327        0.01570959977942       -0.00060535591411
C          131.96921844230476        0.01558410294102        0.00239388283825
C          130.62685380623262        0.01203591166530        0.00326500916385
C          129.40257993975669        0.01084857822813        0.00456350502724
C          134.54025060247429        0.01597248748675       -0.00367937168494
C          135.76452726282528        0.01219983102855       -0.00384200051504
C          149.32238540391734       -0.01207234939542        0.00750883327863
C          148.09367851981901       -0.01538628695610        0.00678371766017
C          146.75128440257870       -0.01991141284925        0.00425825557997
C          145.52700661287315       -0.01946244450730        0.00289630396680
C          150.66477659865035       -0.00669951106315        0.00768943795192
C          151.88904835587527       -0.00279618667184        0.00903395430087
C          165.44987688615720        0.00883523405208       -0.00337702564932
C          164.22112291893168        0.01154914231464       -0.00196866780054
C          162.87860706414330        0.01124491787719        0.00064810730489
C          161.65427814757783        0.01273117753039        0.00167118117359
C          166.79239113074101        0.00804780439568       -0.00329328496442
C          168.01668077805925        0.00520309725852       -0.00497274037528
C          181.58352306376645       -0.00898304562464        0.00180999731681
C          180.35470950832453       -0.00608681541646        0.00392515217640
C          179.01199267386582       -0.00550301384419        0.00622539541988
C          177.78759199927160       -0.00472438995782        0.00623947090888
C          182.92625971811714       -0.01019217945451        0.00314296788112
C          184.15066493137147       -0.01468645378164        0.00057090687750
C          197.72588951015587       -0.04780158896819        0.00330069720824
C          196.49732250682081       -0.05781374203604        0.00507131427508
C          195.15402810376753       -0.06449356510901        0.00091428519017
C          193.92970909800528       -0.06490506607632       -0.00146332557059
C          199.06937442715491       -0.03857214169200        0.00426529522623
C          200.29358822050185       -0.02649117145264        0.00471784924150
C           72.63554454810790        0.04422836080282        0.00454458965874
C           73.27586439231084        1.29875055590148       -0.00300513263617
C           72.66047634848762        2.57840739637790       -0.00920758238883
C           73.65269291460923        3.52103366885188       -0.01756858899572
C           74.90148210907370        2.84150255638509       -0.01627117257348
N           74.62243004211189        1.50225803774699       -0.00740973311400
C           76.16689217645417        3.41873226122252       -0.02198500692070
C           77.39478861988783        2.77564701229331       -0.01808686533271
C           78.66343891368246        3.48220326343529       -0.02212054838460
C           79.62622012559849        2.53703722058632       -0.01377061727866
N           77.60652794790387        1.43097361755644       -0.00845671224681
C           78.94136807034157        1.25725578839976       -0.00574995874206
C           79.61103617730421        0.01571844706393        0.00354775860610
C           78.97094093752942       -1.23887154415794        0.00819136318599
C           79.58672427131313       -2.51846219570494        0.01462728359977
C           78.59474603262409       -3.46120891934940        0.01579613606459
C           77.34573815018642       -2.78185728119046        0.01094310825135
N           77.62465258231080       -1.44239735972558        0.00635240746655
C           76.08051025960604       -3.35865888174223        0.01174045920412
C           74.85253112551752       -2.71512830361665        0.00976073506073
C           73.58414144357076       -3.42194390829178        0.01341378583066
C           72.62113943726027       -2.47696718516539        0.01219874668648
C           73.30552487076170       -1.19702263897365        0.00727441002263
N           74.64077119408798       -1.37065342854894        0.00575042102834
H           71.59522449231461        2.74487032509012       -0.00770175200607
H           73.53981902997093        4.59341677935314       -0.02394081617322
H           75.31595012102193        0.76157121609223       -0.00459620289753
H           76.18458688856325        4.50408625579826       -0.02930823169259
H           78.76922716124129        4.55570146855334       -0.02995996945864
H           80.69731682457063        2.66264255107193       -0.01351266658564
H           80.65201318483312       -2.68470195685836        0.01740352761825
H           78.70788768997082       -4.53356951985517        0.01990883250754
H           76.93109883351354       -0.70177548785518        0.00221520507565
H           76.06243501415577       -4.44401908035663        0.01533908259644
H           73.47871469460205       -4.49548735039856        0.01675493423364
H           71.55012455549624       -2.60292366245529        0.01414700044198
C           88.77862422110105        0.00472195978506        0.02595694661479
C           89.41621726624221        1.26053652163538        0.00558252312108
C           88.79713241325193        2.53841248503764       -0.00893834270820
C           89.78659013077807        3.48371308138050       -0.02744064333379
C           91.03715372591530        2.80758372641264       -0.02495140392441
N           90.76199269468907        1.46756861471500       -0.00428003274263
C           92.30118827967732        3.38721667491607       -0.04146129743677
C           93.52945035519129        2.74489510094305       -0.04063893248474
C           94.79776359878559        3.45157927849172       -0.05966642015237
C           95.76066765205680        2.50656415679207       -0.05211619978351
N           93.74126739997172        1.40029028025397       -0.02237621619948
C           95.07605902094099        1.22681069256580       -0.02823302294221
C           95.74668047782417       -0.01408417495799       -0.01331548371245
C           95.10950357428828       -1.26993640767412        0.00867680545148
C           95.72880960682838       -2.54774246588010        0.02346935038737
C           94.73947098973484       -3.49308526842901        0.04398902493658
C           93.48877008218855       -2.81705920136218        0.04197897639770
N           93.76384808353463       -1.47700539619756        0.02003548302900
C           92.22472796077830       -3.39636637639915        0.05920148263899
C           90.99640785622719       -2.75385093330266        0.05723590532340
C           89.72822982082620       -3.46072229658647        0.07541137520864
C           88.76512570805770       -2.51589354794538        0.06568128709614
C           89.44941206769417       -1.23603806566850        0.04202555786722
N           90.78440257765260       -1.40936284563050        0.03776522133316
H           87.73144743837506        2.70193967912426       -0.00536679794541
H           89.67071217704203        4.55568301802811       -0.04179149518511
H           91.45801501974226        0.72929044868905        0.00205861142496
H           92.31743017908829        4.47246466038459       -0.05723529059938
H           94.90325406316548        4.52499383724370       -0.07634074865805
H           96.83169563505304        2.63231794341989       -0.06123430515416
H           96.79453240162378       -2.71110023847312        0.01896337061341
H           94.85555318821901       -4.56502502234687        0.05919615374378
H           93.06782424891301       -0.73874519257341        0.01367371311521
H           92.20828414400630       -4.48160069934092        0.07587797299972
H           89.62300636040943       -4.53414983355053        0.09284760001797
H           87.69411553354939       -2.64182349884141        0.07357502971097
C          104.91327754520384        0.00753039382122       -0.01754478014338
C          105.54895507680054        1.26421049341689       -0.03518646008037
C          104.92733988844914        2.54082270108694       -0.05545085635503
C          105.91492517979172        3.48814340735719       -0.06750588307367
C          107.16676695967845        2.81451704316483       -0.05517985473680
N          106.89425380933177        1.47390563775337       -0.03573514084496
C          108.42997728806434        3.39597109636664       -0.06157547035363
C          109.65848823444050        2.75421159442119       -0.05005698661751
C          110.92680393631470        3.46100664893684       -0.05853899544211
C          111.88965398585187        2.51602543379919       -0.04301173956763
N          109.87015398306700        1.40960521483498       -0.02991843969491
C          111.20493968561078        1.23620002048115       -0.02531764204917
C          111.87571530175335       -0.00443461916223       -0.00578473866475
C          111.24015217350306       -1.26115616192816        0.01238410247706
C          111.86196145021469       -2.53768368767138        0.03309379721883
C          110.87448809736065       -3.48507808245246        0.04616940163162
C          109.62258646688532       -2.81154786711175        0.03405847261929
N          109.89494709236415       -1.47091074843490        0.01371009321176
C          108.35939343570101       -3.39285230166724        0.04122312739934
C          107.13094405476821       -2.75092196356344        0.02929827845271
C          105.86274708966650       -3.45781279089143        0.03814780222769
C          104.89980490277884       -2.51294744769534        0.02156435534953
C          105.58432504540686       -1.23304314266494        0.00292133627142
N          106.91917808565900       -1.40635102399240        0.00799451778775
H          103.86130786940660        2.70210435150983       -0.05986197461773
H          105.79694781814307        4.55985817568817       -0.08358656023765
H          107.59203768472564        0.73739713814040       -0.02341977583708
H          108.44530719108057        4.48120754395307       -0.07756933702886
H          111.03229928400921        4.53443426791700       -0.07429870350456
H          112.96072077236775        2.64177504319017       -0.04327264623611
H          112.92800749113015       -2.69887728458097        0.03706935571622
H          110.99262498953618       -4.55676182106551        0.06279703809050
H          109.19713701841192       -0.73443323289854        0.00141891089190
H          108.34394139639468       -4.47806785259801        0.05801915420378
H          105.75742935449171       -4.53123683806248        0.05480155507463
H          103.82878499953392       -2.63892222015035        0.02167418047207
C          121.04168505147790       -0.00748144070643        0.00537959512847
C          121.67279303310340        1.25155837394417       -0.01126038365926
C          121.04610005038967        2.52577179586269       -0.02840871119804
C          122.02988331098099        3.47701008417733       -0.04089597490862
C          123.28432268421945        2.80826866836004       -0.03166151701418
N          123.01718394481125        1.46653248932045       -0.01372589838313
C          124.54536009338332        3.39426952699186       -0.03941713741133
C          125.77572824294089        2.75609818516196       -0.03081902488706
C          127.04203777202005        3.46636467923573       -0.04056748416210
C          128.00744499872295        2.52396997340358       -0.02805399857056
N          125.99098781002749        1.41201554195585       -0.01268324779693
C          127.32620456326813        1.24226714060101       -0.01066398681356
C          128.00068665751650        0.00363566869384        0.00579214358412
C          127.36970775961201       -1.25539240860756        0.02314913981453
C          127.99645795848026       -2.52957752825022        0.04041519456540
C          127.01269868208202       -3.48082793130130        0.05358414680023
C          125.75822426224411       -2.81210848777234        0.04465844693080
N          126.02533787274902       -1.47037365113060        0.02636460989886
C          124.49716267308180       -3.39801567506110        0.05271007368375
C          123.26679009623686       -2.75979857778699        0.04390154460772
C          122.00050584108003       -3.47011670023029        0.05344698146141
C          121.03505047538124       -2.52777407150341        0.04024033127893
C          121.71621236470301       -1.24604919994274        0.02269515827432
N          123.05147109626530       -1.41573948465031        0.02535150406599
H          119.97945169618582        2.68289532895448       -0.03074877319203
H          121.90765106391996        4.54826563426408       -0.05526502979016
H          123.71807906035238        0.73296313166888       -0.00376786752054
H          124.55711392043587        4.47954905999523       -0.05406472475837
H          127.14454734516372        4.54009294201581       -0.05507509101017
H          129.07815571144172        2.65265329925719       -0.02995772369770
H          129.06312261867092       -2.68664625768553        0.04238892597374
H          127.13499026763553       -4.55207618922878        0.06816405233969
H          125.32444423697220       -0.73680812939028        0.01643650181224
H          124.48535797753043       -4.48329503848622        0.06751042158513
H          121.89806484784566       -4.54384931805930        0.06822110810895
H          119.96433900586673       -2.65647638501276        0.04181228373004
C          137.16643802230715        0.01172967344631       -0.00532124599755
C          137.80488187137678        1.26700331570506       -0.01928734270456
C          137.18580509628245        2.54496748881489       -0.03371718650165
C          138.17527971653624        3.49031389527978       -0.04443268447160
C          139.42568869076837        2.81402875814366       -0.03660824757912
N          139.15051777455628        1.47389528359206       -0.02161566959751
C          140.69030000048818        3.39225171890611       -0.04232228249061
C          141.91668110005963        2.74643354953719       -0.03363974240173
C          143.18726879180471        3.44901415658378       -0.03970863467727
C          144.14691171748433        2.50076098938794       -0.02742608960081
N          142.12374886540431        1.40101183230080       -0.01816396914138
C          143.45791728118141        1.22314726125015       -0.01412639394187
C          144.12507136344394       -0.01955187711041        0.00058814658523
C          143.48662654021368       -1.27482081366891        0.01294701639844
C          144.10564284086558       -2.55280484590279        0.02727677588150
C          143.11612867386037       -3.49814312237658        0.03537806173458
C          141.86573735310753       -2.82183432588555        0.02635014846970
N          142.14096261489183       -1.48169944763234        0.01292486689024
C          140.60111615273172       -3.40009518942714        0.03056979858123
C          139.37471097295813       -2.75431944137765        0.02294970990101
C          138.10409072997919       -3.45687800962447        0.02952028982752
C          137.14446022048480       -2.50857904303312        0.01998792034661
C          137.83349988367547       -1.23098897198943        0.00734519705645
N          139.16765846588129       -1.40888065971452        0.00932608260162
H          136.12010223462192        2.70843295044360       -0.03562988515342
H          138.05948736912137        4.56231466171229       -0.05657003687674
H          139.84700896065948        0.73612468778233       -0.01317299306769
H          140.70881881790723        4.47746499507845       -0.05460469309258
H          143.29632210583972        4.52212687495207       -0.05166205733083
H          145.21836400425491        2.62304690081341       -0.02711666921912
H          145.17134264657591       -2.71627575421002        0.03076365019079
H          143.23187314392354       -4.57015863518880        0.04668868763783
H          141.44448944890232       -0.74391363804606        0.00414031318307
H          140.58262826022104       -4.48532437740766        0.04156178199446
H          137.99499847642306       -4.53000209744084        0.04013943368101
H          136.07299148021769       -2.63078017377671        0.02094082940346
C          153.29095857456488        0.00372836023878        0.00944751974013
C          153.92343670342098        1.26204466317738       -0.00309411523153
C          153.29855721251641        2.53719910981826       -0.01511371492663
C          154.28374011090838        3.48703027060767       -0.02478009801770
C          155.53727715029996        2.81645159388811       -0.01905158572149
N          155.26814063641018        1.47506666179752       -0.00589216157721
C          156.79912860192584        3.40068959477946       -0.02574992955605
C          158.02897601382821        2.76132105663556       -0.02071028571988
C          159.29575283629680        3.47080053728537       -0.02903216164547
C          160.26060998430364        2.52777491048362       -0.02092275190677
N          158.24345507588077        1.41708087505685       -0.00776952403607
C          159.57865732269059        1.24644657759496       -0.00758728574573
C          160.25224321712750        0.00724088545122        0.00388711436506
C          159.61946149902897       -1.25101775039571        0.01726116843715
C          160.24421938897316       -2.52621299008884        0.02942914550131
C          159.25898556096456       -3.47598784996435        0.04004017049115
C          158.00553440876479       -2.80534199714973        0.03455104206315
N          158.27470755227563       -1.46398020476365        0.02081277997660
C          156.74372754721344       -3.38977225242692        0.04156675000716
C          155.51391585735789       -2.75051536635812        0.03606540656475
C          154.24707493346577       -3.45989604908284        0.04398316284912
C          153.28233250751055       -2.51678881747243        0.03487544361996
C          153.96448077620295       -1.23552591780448        0.02158997164598
N          155.29957723151699       -1.40622936856182        0.02261723630486
H          152.23211615881655        2.69582744328410       -0.01603146905444
H          154.16302074703700        4.55851156603136       -0.03501443074665
H          155.96781478187697        0.74029426579381        0.00074494999468
H          156.81215960352452        4.48601597816756       -0.03633637179172
H          159.39891155617872        4.54451465383588       -0.03965491137565
H          161.33139905568811        2.65579139916744       -0.02335752944616
H          161.31062895902124       -2.68496614097009        0.02994452671359
H          159.37958362536818       -4.54747335091967        0.05069884996065
H          157.57503589263470       -0.72919406571898        0.01410070884626
H          156.73080957711284       -4.47509142640252        0.05249430054769
H          154.14375909148785       -4.53358857561600        0.05496362734944
H          152.21153608580084       -2.64475016987443        0.03676998984931
C          169.41868921545682        0.00731423533781       -0.00395933660400
C          170.05521994245620        1.26362013491405       -0.01899957872591
C          169.43488463871660        2.54091405582525       -0.03573357556367
C          170.42347328459064        3.48718438815436       -0.04643370822599
C          171.67469404107626        2.81224105261757       -0.03644860130006
N          171.40070558054379        1.47187419515815       -0.02000448472581
C          172.93835042419116        3.39256403360872       -0.04211285408385
C          174.16689844181818        2.75060531043596       -0.03249376843755
C          175.43489802804734        3.45794153203948       -0.03994656139613
C          176.39822068197952        2.51338106831270       -0.02696083323826
N          174.37918734795571        1.40611955234272       -0.01523808077936
C          175.71420823926829        1.23323340028793       -0.01167226433562
C          176.38538781342928       -0.00730015326411        0.00498507727355
C          175.74859014646989       -1.26355646174157        0.02095522063167
C          176.36866462317258       -2.54092020922014        0.03865042608580
C          175.37992952159794       -3.48708922961914        0.04951549863026
C          174.12883677238875       -2.81202309864768        0.03883767997809
N          174.40296883698497       -1.47173626086331        0.02185196826096
C          172.86515178390482       -3.39261697153242        0.04411393036056
C          171.63660321124462       -2.75091283628785        0.03375006149370
C          170.36844662359576       -3.45810109522715        0.04057002686175
C          169.40527869972780       -2.51340711490578        0.02725720710206
C          170.08958610216456       -1.23335575351983        0.01225385847326
N          171.42444307764421       -1.40635136896380        0.01647555040822
H          168.36901871445014        2.70333256079269       -0.03907057048105
H          170.30653577510728        4.55904862287593       -0.06002930498081
H          172.09741628592062        0.73431175421607       -0.00984507140097
H          172.95422103723470        4.47784101016918       -0.05569320264688
H          175.53984891172803        4.53145261753095       -0.05335492761842
H          177.46921122304028        2.63969277572988       -0.02733768642803
H          177.43449389995274       -2.70351228008331        0.04233769080639
H          175.49664900500429       -4.55897010241719        0.06366589408995
H          173.70628497690387       -0.73414240815806        0.01113282581373
H          172.84948657078715       -4.47789546041562        0.05798190379211
H          170.26324829033982       -4.53159434455105        0.05382027337373
H          168.33424874752987       -2.63951300697146        0.02711864620773
C          185.55282986656317       -0.01795466583053       -0.00172773071423
C          186.19564812728780        1.23453304361033       -0.04320892260363
C          185.58266946346913        2.51482289356054       -0.08456428602624
C          186.57671659015503        3.45481710489010       -0.11751547297673
C          187.82421402153440        2.77300161687453       -0.09701320907033
N          187.54237040932378        1.43490758667442       -0.05202313065431
C          189.09078860728275        3.34641150504120       -0.11842291832044
C          190.31708884453715        2.70002250705926       -0.09801119604771
C          191.58730558344413        3.40307982605457       -0.12335808942123
C          192.54782097962672        2.45614115374434       -0.09106365812593
N          190.52530233859653        1.35578002939791       -0.05162413076931
C          191.86008134941773        1.17875733279812       -0.04610448092827
C          192.52699382884310       -0.06334620367165       -0.00156594984483
C          191.88393526794130       -1.31566926848006        0.04205501512141
C          192.49652278706495       -2.59593620255226        0.08618242670233
C          191.50224225731719       -3.53593569095909        0.11633874732815
C          190.25496248401421       -2.85409933976621        0.09149778117924
N          190.53693279365956       -1.51618234187547        0.04705942429789
C          188.98821925127135       -3.42812922618341        0.10860371583125
C          187.76200038742411       -2.78225186339438        0.08629360611578
C          186.49152076871349       -3.48514983905450        0.10847436208623
C          185.53124082984402       -2.53790649395292        0.07818809249541
C          186.21946412791016       -1.26054311940376        0.03739137363084
N          187.55382490776927       -1.43767258606671        0.04289170434418
H          184.51774548314521        2.68335875277494       -0.08834285452419
H          186.46594783302399        4.52684808994042       -0.15291782553213
H          188.23437199014677        0.69319582783311       -0.02857875531809
H          189.11157630242971        4.43109848966776       -0.15522564343422
H          191.69554176285888        4.47569955059097       -0.16063467819317
H          193.61915700992435        2.57924067795210       -0.09593716097177
H          193.56141306303252       -2.76456019882570        0.09336015871308
H          191.61273574704430       -4.60797443736479        0.15255720889602
H          189.84496489661157       -0.77450510362763        0.02085755922247
H          188.96783024929485       -4.51287313621773        0.14414151883978
H          186.38290315900301       -4.55784660302255        0.14274089612101
H          184.45982074945431       -2.66066015523064        0.08202842897965
