262
 energy: -478.009906529887 gnorm: 0.000863271188 xtb: 6.5.1 (b24c23e)
Fe          40.40214915930203        0.00475077774541       -0.05452691193366
C           37.01387684092706        0.06683511873997       -0.18394415608012
C           37.67751950340408        1.27409347922553       -0.11730944635850
C           37.01036099001700        2.54065032889699       -0.08428579727794
C           37.96950229657846        3.47940986606354        0.09040688872065
C           39.22366361878264        2.78514438465692        0.14888165822363
N           39.03213925809467        1.43731136277254        0.01045862679398
C           40.44346585468723        3.40622119939180        0.39410151191814
C           40.46143495664221        4.87422746333697        0.59853740779800
C           40.82594994723566        5.40896172019733        1.83730852386870
C           40.84092336313935        6.77736518855257        2.02788771852120
C           40.49803950447459        7.64104121485518        0.98241668806984
C           40.52612036327056        9.09771182110581        1.20954513585633
O           40.83046276533440        9.60561131536263        2.25820550642235
C           40.13686733985638        7.10683113985943       -0.25669195584250
C           40.11619156944883        5.73619295480759       -0.44531394042865
C           41.64662194273115        2.71788948280289        0.44604753349802
C           42.91780313746511        3.35097865872073        0.63863720988433
C           43.85847325115895        2.38543209793244        0.50951964471060
N           41.81323694700842        1.37237235735029        0.21724441228069
C           43.16055192616641        1.16744326821647        0.23905528425681
C           43.81273818276750       -0.04609533930628       -0.01190310337871
C           43.12894501898730       -1.24519704721655       -0.24542585138977
C           43.79374273613798       -2.48467518913836       -0.50078199763010
C           42.82879164156434       -3.43082005933424       -0.59062975075297
C           41.57668906227531       -2.76444716844695       -0.38659343866074
N           41.77706127418003       -1.41696449521006       -0.20452014907180
C           40.34963483456590       -3.41249372190267       -0.37222123479769
C           40.32834015741388       -4.88731656439016       -0.50560295907901
C           39.69724716841942       -5.48877077954676       -1.59788324967210
C           39.67911646822680       -6.86634469026362       -1.72499963443291
C           40.28731325113577       -7.67020707026948       -0.75792406634415
C           40.27853044698112       -9.14059205800341       -0.86825614130838
O           40.78747954589557       -9.87510765676630       -0.06096426484025
C           40.91730981453712       -7.06829339097441        0.33633586329190
C           40.94064914631922       -5.69242078645861        0.45949284142373
C           39.13923227105324       -2.73796689405044       -0.25252066157715
C           37.86020792007209       -3.38712685468163       -0.21870134234070
C           36.92590736026484       -2.40840355240228       -0.18312223962425
C           37.63509874532777       -1.16463364576587       -0.17605182325166
N           38.98846054611384       -1.37928409145054       -0.18905154542224
H           35.93077927434723        0.08676505510149       -0.22772448202249
H           35.94350142859680        2.67232423290637       -0.16990570953926
H           37.84998751303294        4.54646829581586        0.18470013721400
H           41.08317247466467        4.74074675861838        2.65128982536979
H           41.11720227699480        7.20147765050215        2.98726582887375
H           40.23891648690248        9.70282789141511        0.32324631862134
H           39.87324249575911        7.77022408212111       -1.07400383606257
H           39.84640269197967        5.32380120552996       -1.41098293199169
H           43.06220507118329        4.40181013174430        0.82926276250261
H           44.93030102297178        2.47546582911229        0.58130616549489
H           44.86142929121978       -2.59999797031823       -0.59498362469121
H           42.94343510760500       -4.48429726877989       -0.78691124751713
H           39.23489750136972       -4.86666506787613       -2.35593608604603
H           39.19200141594953       -7.32518130911356       -2.57927283659316
H           39.75704170399157       -9.52690850509172       -1.76989855555111
H           41.38447224796199       -7.70071443326682        1.08360289444783
H           41.42039083590890       -5.22842820489718        1.31380584383753
H           37.70955993372254       -4.45441339740066       -0.21817502024608
H           35.85176594570857       -2.50013611096319       -0.15735652862734
Fe          96.05895621451263       -0.02807587357739       -0.10462248025826
C           99.44844313807708       -0.07257356710344       -0.22137872944464
C           98.78624652271125       -1.27947821239134       -0.30428758918393
C           99.45646965882604       -2.53981871810464       -0.41697126716046
C           98.49789343047294       -3.49398811155032       -0.36961148178692
C           97.24086554410599       -2.81328604331733       -0.24784000409818
N           97.43078762533274       -1.45852220422549       -0.21131389703372
C           96.01658069584941       -3.46092974614607       -0.12627282546400
C           95.99659970848784       -4.94302465184301       -0.11939957638385
C           95.58676209416363       -5.63561328784157        1.02334549285870
C           95.57073415873933       -7.01715255703385        1.03217885171852
C           95.95741326234194       -7.73635106906463       -0.10351568903829
C           95.92748674101601       -9.21016395078855       -0.07069142764521
O           95.58591275576271       -9.85133455501290        0.88981744102870
C           96.36288256842424       -7.04429501428796       -1.24715718371049
C           96.38469826563023       -5.66077134127495       -1.25344281866259
C           94.80921431976202       -2.78500460947730       -0.02840629121140
C           93.53471647929820       -3.43883820549002        0.01369472636507
C           92.59501757125219       -2.46407893882692       -0.00778557671590
N           94.64541506112099       -1.42036677185894       -0.06014176424859
C           93.29694013888482       -1.21970612867788       -0.05830536687369
C           92.64815073490621        0.01962087903028       -0.11181021192423
C           93.33315563435795        1.24008412433420       -0.11271718519925
C           92.66899093179923        2.50534199169942       -0.15095283145797
C           93.63376699077334        3.45229394774650       -0.06989494285934
C           94.88546464266365        2.76028248137705        0.01801062671723
N           94.68479587049407        1.40158581168527       -0.03083935572014
C           96.11350601078883        3.39799877295671        0.12395139244668
C           96.13472650771621        4.87564310571693        0.22424406008325
C           96.74631168709251        5.64223765929803       -0.77142492280774
C           96.76421625626705        7.02268272469500       -0.68066258096772
C           96.17483355721664        7.66360899145128        0.41164972840032
C           96.18394948200778        9.13305658020683        0.53360812999704
O           95.69018071331243        9.73106926836783        1.45491639236076
C           95.56376623751410        6.89624186464816        1.40882058635153
C           95.54096037624895        5.51803078519086        1.31471437775037
C           97.32424921514115        2.71417844614986        0.11851524852220
C           98.60458676163594        3.35237175534948        0.22811183535306
C           99.53783306072638        2.37954069881130        0.10809521305852
C           98.82703742799795        1.14707987516082       -0.05242641053642
N           97.47386525822301        1.36068121255983       -0.01932979347830
H          100.53153269857182       -0.08595477861092       -0.26789349823075
H          100.52471431705524       -2.65874588572538       -0.50399091025343
H           98.61927009279098       -4.56443676668213       -0.40390657289315
H           95.29502872111343       -5.07974451176328        1.90717533254692
H           95.25979729017443       -7.56334175250370        1.91626342914717
H           96.25214781686684       -9.69380504550499       -1.01669435844910
H           96.66015808399213       -7.59485722803707       -2.13378217015542
H           96.68882722806153       -5.12547768365333       -2.14581819466526
H           93.38862993462917       -4.50634958612988        0.03706606750838
H           91.52163919366377       -2.56289082723316        0.00546026138063
H           91.60175504908318        2.63563355115712       -0.22932833956915
H           93.51949122030797        4.52387325879096       -0.08060163317155
H           97.19359892770841        5.14774642267383       -1.62631883421537
H           97.23637307199765        7.61080282352888       -1.46091154669988
H           96.68979845172208        9.65685075301358       -0.30541428859751
H           95.11078799803461        7.40268473738797        2.25435542888358
H           95.07577866665088        4.92478646653687        2.09378403799815
H           98.75690825746057        4.40834379250913        0.38134695061172
H          100.61235988908466        2.46708281240483        0.13243195337896
C           45.21310551116314       -0.06104855775690       -0.02112671132723
C           46.43961788673145       -0.06862218541037       -0.02109245620042
C           47.77868879012193       -0.07197361324364       -0.02188783402916
C           49.01170478767974       -0.06942313204566       -0.02159974335567
C           50.34573818857557       -0.06617964992343       -0.02016355099724
C           51.57883003423512       -0.06055518767665       -0.01753038611901
C           52.91746462200916       -0.05592593572362       -0.01255919454357
C           54.14436172351695       -0.05118076740950       -0.00628508664570
C           63.76284788309746       -0.02498735204028       -0.06566336033791
C           64.98979787227314       -0.01840347804015       -0.07720460738040
C           66.32829981519288       -0.01740282873354       -0.08461924508371
C           67.56162010093134       -0.01441780023277       -0.08583102370140
C           68.89539346956408       -0.01340638057017       -0.08353955488430
C           70.12876133016330       -0.00792926763598       -0.07506498538743
C           71.46731408619667       -0.00885155560438       -0.06694767736598
C           72.69426165655933       -0.00940646915419       -0.05679837902279
C           82.31635275962466        0.02548165948524       -0.14100300046050
C           83.54267087740752        0.03642273626364       -0.16342534935830
C           84.88179778336489        0.04426130147546       -0.18104256292765
C           86.11450842300702        0.05175573825024       -0.18840348070423
C           87.44916864769139        0.05454198287362       -0.18869325369977
C           88.68180206642749        0.05326106689079       -0.18182529502983
C           90.02138784223729        0.04691605533006       -0.16563952793988
C           91.24737903637755        0.03764869698075       -0.14380184242776
Fe          58.95393148298174       -0.04548464600678       -0.00969201811581
C           55.54322058264290       -0.04962160672666       -0.00368343259512
C           56.21517579801748        1.17012673472110        0.15356255872274
C           55.54794342311155        2.42734083397999        0.27850215431900
C           56.50192556099662        3.34462786778033        0.57254917107043
C           57.74677080895400        2.63913281126334        0.63326721574702
N           57.55977769830754        1.31475984478420        0.32411430953564
C           58.95136832365779        3.21106284358535        1.02677087147960
C           58.94673273115915        4.61842357332382        1.48491607951499
C           59.70350320627076        5.58474832467269        0.81534910290363
C           59.69520825180126        6.89758050078497        1.24561028212610
C           58.93573705009995        7.27283630299491        2.35860296930166
C           58.94847468998549        8.67994067514938        2.80095684673979
O           59.58447358222880        9.54552318553956        2.25690834621965
C           58.18081897996236        6.30777472108109        3.02929998286206
C           58.18384923405097        4.99453928900752        2.59399105498475
C           60.15849466335884        2.52311305043640        1.00644135308930
C           61.40672601583998        3.07185882976737        1.44532204798657
C           62.36314499704388        2.16357240945163        1.13289020410324
N           60.34716577541497        1.26542612697142        0.48737338080532
C           61.69376652341848        1.06016233542278        0.51934210367933
C           62.36417451386905       -0.03099844835958       -0.05047845247756
C           61.68930721532870       -1.13135060633763       -0.59670611206133
C           62.35289981236441       -2.23619294376993       -1.21392264888775
C           61.39840249579841       -3.16064386856067       -1.48219959215154
C           60.15705365487293       -2.61792238769950       -1.01744191618462
N           60.34641189197970       -1.35093891602885       -0.52272325851937
C           58.95526265086139       -3.31581394240428       -1.00169485009177
C           58.95404947452988       -4.73183325475804       -1.43225251690495
C           59.72910634688463       -5.67661279239300       -0.75410141665415
C           59.72395506787547       -7.00192324664029       -1.15141394001681
C           58.94854711406364       -7.40694719111114       -2.24031962526722
C           58.92634579803798       -8.81315130713385       -2.68534573128119
O           58.27517503332262       -9.20842084341998       -3.61775953747537
C           58.17676104122037       -6.46054132555743       -2.92224539550540
C           58.17658941636689       -5.13864317509084       -2.52089790353779
C           57.75215697398114       -2.74331478267695       -0.60530906609482
C           56.50900455879868       -3.45074008689214       -0.53072787531321
C           55.55261063684308       -2.53010202835961       -0.25613111179368
C           56.21723445642667       -1.26963858469698       -0.15144144044154
N           57.56218941326443       -1.41424186034731       -0.31731350326480
H           54.48665841275464        2.57368679994961        0.15852031728972
H           56.38289462882761        4.40412162422308        0.73024957120059
H           60.28339320834921        5.29893502286973       -0.05487374462727
H           60.27468158824662        7.65487029919620        0.72858322118073
H           58.31628473399542        8.88377952381536        3.69126677238673
H           57.59120182356679        6.58991184053681        3.89547158261767
H           57.60640684923839        4.24480841347197        3.12302356556327
H           61.52674850214831        4.02695599207209        1.92994866632917
H           63.42712076698983        2.22254654431764        1.29599427006397
H           63.41217332199134       -2.28554838973582       -1.40795066232380
H           61.51485936251377       -4.12216438730762       -1.95493516405863
H           60.32222034188026       -5.36680739199530        0.09891938145877
H           60.32308378692845       -7.73045035924633       -0.61494908277875
H           59.56843675084131       -9.49183775041923       -2.08455871285757
H           57.58091117236111       -6.78369551048231       -3.76907762408580
H           57.58647917617181       -4.40488264584905       -3.05813943790671
H           56.39207559819243       -4.51310134696646       -0.66915483430967
H           54.49150892208631       -2.67662368475911       -0.13499603442822
Fe          77.50540305163497       -0.01095486878675       -0.03635356177221
C           74.09310818474876       -0.01080727397018       -0.04302207115096
C           74.76536834644683        1.20301469617912        0.15299445020955
C           74.09625299593309        2.45550985693630        0.31358673849664
C           75.04987974137592        3.36679182444457        0.62548052779675
C           76.29693223078624        2.66304720103715        0.65914078006856
N           76.11024743058363        1.34498615933627        0.32214243013642
C           77.50460660228313        3.23376967745054        1.04213813850350
C           77.50341718132107        4.63694547357339        1.51390698784960
C           78.23759786092144        5.61286012510214        0.83320925322793
C           78.23338078660167        6.92205180503008        1.27437821564837
C           77.50103481876071        7.28375707079846        2.40978562651132
C           77.51782094982221        8.68732407487529        2.86329877088818
O           78.13119855412795        9.56161430217906        2.30742189743144
C           76.76887841503060        6.30902772254203        3.09159631093577
C           76.76732481640437        4.99941172792899        2.64521434930161
C           78.71497718224317        2.55245841337948        0.99191994450783
C           79.96744806265525        3.10645131912045        1.41137265128926
C           80.92356460005941        2.20651138113429        1.07509407070446
N           78.90122292424779        1.29994954584318        0.46061233933963
C           80.24977729137575        1.10232285213332        0.46815333079857
C           80.91711876539225        0.01316359970080       -0.10775721830363
C           80.24120758300653       -1.09409904264955       -0.63661773904893
C           80.90484009390558       -2.20499074511558       -1.24243426990667
C           79.95165847422516       -3.13548236613099       -1.49373088200039
C           78.71068812720203       -2.58838838450575       -1.03361319747364
N           78.89863748395554       -1.31642109317080       -0.55316897141868
C           77.50746766242759       -3.28497913346884       -1.02252494210639
C           77.51316179522729       -4.70545299998129       -1.43894630749541
C           78.27681368895330       -5.64126279659859       -0.73574500095572
C           78.28183849235566       -6.97079418098079       -1.11838696984794
C           77.52813911370362       -7.38925877731518       -2.21746112160638
C           77.51760599362588       -8.80018510106228       -2.64727497824508
O           76.88339120180939       -9.20799480153036       -3.58603605380227
C           76.76801689923457       -6.45185499356085       -2.92446508170651
C           76.75787700985347       -5.12548244566763       -2.53796775861086
C           76.30093991975868       -2.70741531969601       -0.64767368289048
C           75.05322426766381       -3.40943192200258       -0.59896832518947
C           74.09626679075072       -2.48558512394526       -0.33883228461199
C           74.76511133963945       -1.22908830453755       -0.21261234522320
N           76.11158265852133       -1.37788389922839       -0.35787106440084
H           73.03402175607302        2.60257644912169        0.20328373286079
H           74.92977123880878        4.42159394443914        0.81129055955905
H           78.79679603364441        5.33718980711864       -0.05366713549693
H           78.79549787642759        7.68669729812041        0.74909077580724
H           76.90844408188283        8.88033341566825        3.77175676109085
H           76.20041652458679        6.58079263263271        3.97505687387840
H           76.20736865072392        4.24218457874590        3.18230593305938
H           80.09035260874229        4.05908412658917        1.90003763441999
H           81.98992594011389        2.27095842018248        1.21926345221873
H           81.96346598711627       -2.25440689494683       -1.43988612453608
H           80.06850062593756       -4.10303046369382       -1.95387904657091
H           78.85366974981805       -5.32051990411877        0.12435216051964
H           78.87222104358294       -7.69210291453807       -0.56281264272923
H           78.15056270062234       -9.47037065776018       -2.02750442201004
H           76.18958613688942       -6.78540182605346       -3.77931301012162
H           76.17764462391517       -4.39877703582462       -3.09517860263339
H           74.93390210063802       -4.47056103686342       -0.74462098459254
H           73.03244777602195       -2.62765226009194       -0.23771525823283
