219
 energy: -383.601385003479 gnorm: 0.000630487995 xtb: 6.5.1 (b24c23e)
Fe          33.75898411331978        0.15393366307330       -0.08046556594012
C           30.38470899788864        0.39513555671031       -0.28291847090287
C           31.03519310717954        1.20561524734775        0.62459976547644
C           30.36001711262741        2.13104013260289        1.48434426363320
C           31.30202561663345        2.65875086557498        2.30083402109593
C           32.55368253237971        2.06667634089664        1.92777787204360
N           32.37846736824973        1.18785577752546        0.89369117084622
C           33.75635309589927        2.32283284283745        2.57542160925012
C           34.96176137526222        1.76676863132692        2.17709688828803
C           36.21973484278278        2.07644039214417        2.78849472396996
C           37.17434022433175        1.46114651641559        2.05098151480287
N           35.14925439355615        0.94398538840635        1.09156636686345
C           36.49757167752744        0.76853219891123        0.99869926784832
C           37.16660718575501        0.06295321755827       -0.00853505423866
C           36.50038025306939       -0.65688574551304       -1.00746147577241
C           37.18169160820829       -1.45391480490095       -1.98024797127714
C           36.22777889062473       -2.11480977505122       -2.67812392054720
C           34.96421828983827       -1.70377759949286       -2.14307514872646
C           33.74319583348422       -2.19504966902621       -2.57842012575804
C           33.72936935915875       -3.23390306272927       -3.64496892152735
C           34.09855203391308       -2.91361676707224       -4.95798044374183
O           34.45280244528119       -1.61978423062316       -5.17612345576488
C           34.84733673612514       -1.19131896218212       -6.46349763818828
C           34.07878764051330       -3.88977207779131       -5.95373423992849
C           33.69375180551707       -5.18240842014260       -5.63154981243740
C           33.32453591931770       -5.52280542955907       -4.33898000086041
C           33.33897626450936       -4.54565339633337       -3.34417599871756
O           32.99908007841187       -4.78039536704201       -2.04975861567991
C           32.58497582693118       -6.06744167686554       -1.63887407518113
C           32.52565779578698       -1.74194005562969       -2.08456348378547
C           31.25310829939096       -2.17289119543681       -2.58649769079058
C           30.31248981218945       -1.42346289987425       -1.96511279037769
C           31.01098953758197       -0.54388330109204       -1.07660898215876
N           32.36204931597787       -0.75873628064354       -1.14682931175056
N           35.14980641887345       -0.80122644438400       -1.12290031206019
C           33.75706910937568        3.26200359263839        3.73108134912986
C           33.96895479148571        2.78573081735664        5.03138987805797
O           34.15482097673247        1.44480974241113        5.14870651387633
C           34.37812324229949        0.86070630957460        6.41585942692611
C           33.97212121785878        3.66646036849629        6.11273768066638
C           33.77036288317053        5.01988297913368        5.88805511563136
C           33.56374896716276        5.51468801165234        4.60923152087598
C           33.55520816840168        4.63358029631050        3.52836390728813
O           33.36908248362035        5.02134148975850        2.23932086798508
C           33.17356453055336        6.38435037710903        1.92168145355351
H           29.30665972208623        0.48459872859231       -0.35951570663787
H           29.29951088146155        2.32688717250606        1.45943366984596
H           31.17503351531020        3.38324381353035        3.08879714568881
H           36.34513886507337        2.69788591842657        3.66013901814387
H           38.24308320700345        1.47277995919095        2.19111294081921
H           38.25280553368358       -1.50839631427881       -2.08948997660741
H           36.35735990648499       -2.81855355505340       -3.48392882943653
H           34.03865674582539       -1.31567273952968       -7.19394148273472
H           35.08609814868106       -0.13025420029899       -6.37023249637045
H           35.73645084289630       -1.73098349951653       -6.81185505443595
H           34.35865408280272       -3.65187350806809       -6.97126001273015
H           33.68037309836764       -5.94172061023351       -6.40577885566594
H           33.02922596146468       -6.53932304487870       -4.11593547362781
H           32.36466833747767       -5.98928087045393       -0.57263080701129
H           31.68071201748266       -6.38745161813018       -2.17082109107168
H           33.37643893201972       -6.81164812208776       -1.78945540471336
H           31.11336910251964       -2.94173925990853       -3.32906600365430
H           29.24060384278305       -1.44850041018390       -2.08380993042466
H           34.49856354163123       -0.20979442823675        6.23977783386378
H           33.52670262450442        1.02155887718445        7.08830976622064
H           35.28893951104617        1.25319932772736        6.88434954908581
H           34.13066946999561        3.30856882007153        7.12121355437206
H           33.77508400763331        5.70495450295122        6.72878278657236
H           33.41202105424004        6.57575665826516        4.46308593829246
H           34.03764512674586        6.99297041639102        2.21475544801271
H           33.05460380263413        6.42928222852394        0.83756227128136
H           32.27053333916305        6.78312559116601        2.39976532082440
Fe          55.48565552698493        0.05620087965519       -0.13724952294968
C           58.85998360886355        0.33123188066410       -0.36154282534823
C           58.22347231859180       -0.51781990268202       -1.24353187944990
C           58.91261148537524       -1.30593578097455       -2.22087766225915
C           57.96521471359094       -1.98919796478901       -2.90496304683493
C           56.69771371170961       -1.60105561813137       -2.35788148891598
N           56.87123672488724       -0.72159349710456       -1.32372723181057
C           55.47442877613675       -2.03114935136171       -2.85712228873094
C           54.25831305997910       -1.62044302574173       -2.33346659850478
C           52.99082351962530       -1.98154704475363       -2.89400177037996
C           52.04250383392713       -1.40410703351875       -2.11882431632239
N           54.08160010696684       -0.81852297563817       -1.23127409373225
C           52.73153509919034       -0.69630744700740       -1.08486335443608
C           52.07420018077261       -0.05964151314755       -0.02487774520105
C           52.75627347650443        0.57022125666870        1.02397467841387
C           52.09392302581901        1.15842785328443        2.14642263338755
C           53.05735674590387        1.70686122918991        2.92389199979252
C           54.30522346753464        1.47130757969968        2.26149453598767
C           55.51950760576868        1.96415217668196        2.71120285259825
C           55.53989978517726        2.78678078342001        3.95210521735549
C           54.98412780137926        4.07312544798594        3.95942040174797
O           54.45023812239271        4.49518611092626        2.78361970479643
C           53.85619656813817        5.77346729325895        2.68282240611199
C           55.00996536435532        4.84500343959252        5.12057037131119
C           55.58704459078609        4.32571930216020        6.26960368626867
C           56.14187638630630        3.05495022684522        6.28617985469630
C           56.12135819902861        2.28476086883519        5.12372522989169
O           56.63328973929802        1.02893963455214        5.04017398138737
C           57.23104563255253        0.42226935045525        6.16770006414296
C           56.71878681475231        1.75016461084850        2.04247740744913
C           57.97039631557472        2.32001265582261        2.44857607812692
C           58.90345829391607        1.88021814843094        1.57187837028410
C           58.22067264672432        1.03811890531183        0.63583991187432
N           56.88167697547443        0.98342959667839        0.92156256966289
N           54.10476692289375        0.74725322297167        1.10974763239264
C           55.46524964431492       -2.95265592891358       -4.02644174541563
C           55.04058918621377       -4.27973848674244       -3.87642823138853
O           54.66722854846365       -4.64494076499545       -2.62247960979083
C           54.20123776467987       -5.95431136875054       -2.36588624755971
C           55.02898125806241       -5.14423929245590       -4.97072964006226
C           55.43467968260828       -4.67653718579769       -6.21139053185967
C           55.85388653472429       -3.36615259784918       -6.38493867739326
C           55.87122319635428       -2.50282528800490       -5.28997380732044
O           56.25493998983084       -1.20102060520102       -5.36192036769885
C           56.68616790894762       -0.64777277856237       -6.58848939339116
H           59.93686989597031        0.43058758942360       -0.44209059197036
H           59.98382256132041       -1.32424322781480       -2.34675481310787
H           58.09729001992084       -2.68847283448968       -3.71463320366703
H           52.85641803444960       -2.59641679513053       -3.76900748607734
H           50.97070393592234       -1.45744093639558       -2.21836408458746
H           51.02827011652556        1.14655946855649        2.30664245344703
H           52.94448305626704        2.23454118503966        3.85688171092275
H           54.58222131397469        6.57092892132984        2.88261778229453
H           53.50013034179337        5.86219143634596        1.65479530489605
H           53.00639676680105        5.87677660430688        3.36843483000115
H           54.58741318227081        5.84072821465438        5.13587734662286
H           55.60542552238704        4.92555302199125        7.17294606243393
H           56.58470687539844        2.67540112519011        7.19728080339262
H           57.55362058699766       -0.56895696136681        5.84378508426107
H           58.10360787373457        0.98946676675294        6.51409671410240
H           56.51659954058724        0.31663986876638        6.99315848679341
H           58.10180649207478        2.97279364919994        3.29644117069289
H           59.96155371895053        2.08884061068320        1.54828396457573
H           53.95272442472071       -5.98515480329451       -1.30349609220551
H           54.97312836161205       -6.70433837866982       -2.57724262161114
H           53.30335104921912       -6.18287839615480       -2.95276541089038
H           54.70768946643893       -6.17168488303449       -4.86431771428582
H           55.42312625237864       -5.34819847279033       -7.06279090472520
H           56.16136024171980       -3.02736419674211       -7.36520515775651
H           55.89116114893937       -0.67560691355149       -7.34365851632560
H           56.94455941257298        0.39181121333553       -6.37849751562067
H           57.57128369253125       -1.16764680475822       -6.97487505365891
C           38.57112970444852        0.05117799841102       -0.00011716669820
C           39.78977388528647        0.03989019346363        0.00295162912269
C           49.45082380339623       -0.07157282812859        0.01022263737105
C           50.67000558476877       -0.07145441978923       -0.00150681041600
Fe          44.61895574667487       -0.02529568635851        0.00982522490093
C           41.19375940909852        0.02409915732377        0.00468512154537
C           41.86246120362671        0.13814171077101        1.22941827896753
C           41.18000714938129        0.23706337924271        2.48123808367479
C           42.13519157920465        0.29999113642167        3.43957053915593
C           43.39718443722506        0.24338522888832        2.76659663483644
N           43.21362681897848        0.13897677541862        1.40934972537621
C           44.61866729050364        0.26461469579803        3.42449484549234
C           45.84066888310451        0.18972608362434        2.77129799721731
C           47.10175028489213        0.24139120604664        3.44599048820417
C           48.05775958851454        0.15669363183567        2.49008976851441
N           46.02587538192928        0.08327181923037        1.41445458852630
C           47.37736831699745        0.06148487004863        1.23715630333719
C           48.04685730458515       -0.06309848517714        0.01319656082464
C           47.37674381831479       -0.17612674982084       -1.21175938251515
C           48.05751821284083       -0.29652716793369       -2.46235292029897
C           47.10191371074324       -0.35786714587504       -3.42030704864658
C           45.84098348655964       -0.26561954555843       -2.74953381443838
C           44.61936931430819       -0.30006500705795       -3.40726185046176
C           44.62365737329928       -0.39689322706716       -4.89289434982669
C           44.19294054110742       -1.56697829603303       -5.53201967443250
O           43.79221455828961       -2.57604996679372       -4.71528177299055
C           43.33181548219900       -3.79725600504100       -5.25733868508654
C           44.20377271634996       -1.65397324882479       -6.92384061861496
C           44.63940631385231       -0.56932990649812       -7.66995371940638
C           45.06730291550176        0.59982831001978       -7.05938748918539
C           45.06250583236648        0.68565669303773       -5.66760358447986
O           45.45521622398083        1.78745246424847       -4.97742106564841
C           45.93337456230974        2.92954657352966       -5.65901232880781
C           43.39674599558186       -0.24382342332008       -2.75325918011000
C           42.13519191662579       -0.26535770091471       -3.42918910819991
C           41.17941434023852       -0.18364396936297       -2.47272987374658
C           41.86146031782448       -0.10540242461708       -1.21917231420173
N           43.21254593733730       -0.13763661979332       -1.39621188288139
N           46.02575654784670       -0.16053690810379       -1.39255227367700
C           44.61761010222227        0.36906780269024        4.90979110140172
C           44.99935025948164       -0.72737041805825        5.69456281568807
O           45.35017987928248       -1.84930432170105        5.01421382346489
C           45.75414298359262       -3.01269427117927        5.70765805423668
C           44.99207585676248       -0.63389038862180        7.08593557710575
C           44.60950328734113        0.55650334917260        7.68547158969112
C           44.23073250342426        1.65525395646414        6.92895601927688
C           44.23135369952544        1.56059419153925        5.53763815204247
O           43.88271747514693        2.58026381609734        4.71042202122164
C           43.46496944927554        3.82235008603836        5.23947452892463
H           40.10859118695117        0.24484298054276        2.59853179385746
H           42.00738185807054        0.37439553023931        4.50705076979505
H           47.22826043532677        0.33042981537594        4.51252549535110
H           49.12870787152324        0.15265564707924        2.60993555794981
H           49.12831583352789       -0.32449931202009       -2.58002087174713
H           47.22927542571558       -0.45654854220612       -4.48584902078457
H           42.44654076824591       -3.64857870669690       -5.88753578397711
H           43.06410895083055       -4.42542319495276       -4.40576367504022
H           44.11332791188564       -4.29722290819842       -5.84229245845670
H           43.87775517657371       -2.55431577645734       -7.42712552656456
H           44.64570636581539       -0.63682962603533       -8.75232298382524
H           45.40008090266380        1.43108090486018       -7.66639644489635
H           46.19359612281579        3.65620696412431       -4.88721009276161
H           45.16463273534480        3.35837642450263       -6.31317377054739
H           46.82653583896958        2.69836963523979       -6.25199390222449
H           42.00800495912632       -0.33238666112011       -4.49721608510631
H           40.10827505329866       -0.16613633154685       -2.59242166309993
H           44.95203060551169       -3.39645121427120        6.34969991007231
H           45.98779904302349       -3.75563989019492        4.94289434627784
H           46.64814046943788       -2.82792991822228        6.31547814179097
H           45.28016998342170       -1.47575000369050        7.70113599687479
H           44.60617290947251        0.62956723406518        8.76750293311849
H           43.93870562038450        2.57183133371697        7.42375132076146
H           44.25857090300571        4.29449286283911        5.83123594637028
H           42.56675428304165        3.71312723307852        5.85933069002186
H           43.23317664748321        4.45518802357020        4.38085033498828
