177
 energy: -320.464796118573 gnorm: 0.000607323820 xtb: 6.5.1 (b24c23e)
Ni          33.72448576503360       -0.05254503222222       -0.14031995179402
C           30.35587934163486       -0.07207440318307       -0.53273922154923
C           30.99041385034754       -1.28014420792436       -0.32956354082439
C           30.29770227605598       -2.52660465712392       -0.21334948350045
C           31.24080031174451       -3.47826752929190       -0.01993287680838
C           32.51229676040261       -2.81650135149901       -0.05398520086251
N           32.34471808665213       -1.46198012521760       -0.20625903984696
C           33.73302477374397       -3.47746916317782       -0.01204474955248
C           33.74730328112690       -4.95660419485112        0.08985181006960
C           33.16702812429067       -5.74724634374459       -0.90224377158909
C           33.18616127530789       -7.13027788588949       -0.80682665642758
C           33.78583752235087       -7.73913928466411        0.29307411783234
O           33.82448319950308       -9.08997410722902        0.42754947742734
C           34.36895108536401       -6.96068837999430        1.29134688292569
C           34.35099774936891       -5.58150159502928        1.18392451171113
C           34.94811734728946       -2.80885413243338       -0.09690093577238
C           36.21212259071009       -3.47245688814785       -0.20040163350593
C           37.15953809463420       -2.50544266378505       -0.25176456678507
N           35.12010271887278       -1.44381722081091       -0.10662808372505
C           36.47448502772365       -1.25487423481066       -0.17022657263826
C           37.13291691033109       -0.02870795125527       -0.05900915895694
C           36.45340559674099        1.18108337572625        0.09910772326589
C           37.11628812192183        2.43133423505060        0.29148381415239
C           36.15099668239817        3.37991336042597        0.34744969458508
C           34.89899029337057        2.70690127894901        0.17736725495813
N           35.09674722469050        1.35108582595291        0.04392584577181
C           33.68619898543417        3.36910928457431        0.03960843824558
C           33.67366327519366        4.84971728669791        0.14347544153311
C           33.98117087631814        5.47753124039488        1.35227394907109
C           33.97406763140926        6.85759358295687        1.45466634783893
C           33.66459016456080        7.63183421388867        0.33795240215218
O           33.67168113073857        8.98352310711337        0.47172535206703
C           33.36050450560687        7.01879590859175       -0.87521245802376
C           33.36342992673114        5.63527340878414       -0.96638719662678
C           32.49585225399260        2.70623941169811       -0.22877057792397
C           31.23894655093501        3.36707896159017       -0.42624592805893
C           30.31293022096035        2.39982693823613       -0.62311884370964
C           30.99874585554284        1.14816075945639       -0.51838886267566
N           32.33873231842430        1.34399322181334       -0.29495167326291
H           29.28061019449627       -0.07878458548120       -0.66841686546059
H           29.22593564870838       -2.63683043672688       -0.26092590575138
H           31.09993600067993       -4.53607412966280        0.13173069300093
H           32.71326029407446       -5.27565943638307       -1.76683299528217
H           32.73913648636623       -7.74029704132398       -1.58451717157136
H           33.39091535000774       -9.53063647785810       -0.31559283499530
H           34.82995336699449       -7.44763114973157        2.14179668960299
H           34.79628663992110       -4.97518246321490        1.96479510944923
H           36.34617624595550       -4.54102836493089       -0.24185504332149
H           38.22944005397637       -2.61514680978510       -0.32573554890863
H           38.18464261167021        2.55430025946702        0.36549414035008
H           36.26782036829774        4.44446999696147        0.46841810102479
H           34.21432596773155        4.87419190518901        2.22250155254583
H           34.20606861913900        7.34809930890477        2.39197926897897
H           33.44205453902435        9.42053105138913       -0.35944343289449
H           33.12537226083854        7.62562502038045       -1.74311667418445
H           33.13949175852805        5.15910896001159       -1.91451527445127
H           31.09456724918561        4.43506484620842       -0.40570517913085
H           29.25435425192738        2.50345816404690       -0.80119477446446
Ni          55.44959020679318        0.02118497147935       -0.12190590856446
C           58.83032919102402       -0.03677366337948       -0.44257611827279
C           58.20225920680429        1.19104461029447       -0.44052447729317
C           58.90688420631408        2.43416887845182       -0.51322853279527
C           57.97432242071788        3.41274875503620       -0.44727436405350
C           56.69762841134060        2.76539830907072       -0.36553010748290
N           56.85004785942898        1.40109834013431       -0.33825037802877
C           55.48632694806766        3.44383728331857       -0.35211876743848
C           55.49501323687352        4.92564970719894       -0.42044095857413
C           56.01798692753086        5.58411122192535       -1.53343033682543
C           56.02262588496104        6.96900455037815       -1.59909556827551
C           55.50570249710304        7.71279682542663       -0.54095821509982
O           55.49409783311197        9.07063857894441       -0.56224803889800
C           54.98075386959666        7.06688798716786        0.57694820961485
C           54.97376317035086        5.68430754416806        0.63018578144022
C           54.26127413014737        2.79080147553129       -0.31051217061002
C           53.00488793346700        3.46664703114631       -0.42476730382283
C           52.04297953075876        2.51452805940419       -0.37599544608364
N           54.06906305320092        1.43219173707148       -0.20161995009132
C           52.71071229007725        1.26203552350508       -0.22099541112455
C           52.03320436401159        0.04972287946481       -0.07412743910884
C           52.69529089248368       -1.16418306100102        0.12431591705058
C           52.01083254364232       -2.39443291746675        0.36314992865455
C           52.96122375127630       -3.34653802513507        0.51871407048237
C           54.22692525566448       -2.69493286946152        0.37084737737373
N           54.05130653738404       -1.35014795286168        0.13358053688859
C           55.43963333987377       -3.37113147263758        0.38522731422053
C           55.42929848080049       -4.83369633311994        0.63703986204172
C           55.01212893738670       -5.33541533620495        1.87184390604208
C           54.99624741692798       -6.69777048139123        2.11356701276194
C           55.39315588897291       -7.58192226306469        1.11200364460888
O           55.36028501426460       -8.91286383401552        1.38051368944157
C           55.80812933601094       -7.09555763032764       -0.12547110208506
C           55.82718851768279       -5.72846322576724       -0.35607573712895
C           56.65314699754563       -2.74176015142414        0.14271858043834
C           57.91332559452051       -3.42456981955293        0.10901533422311
C           58.85754910777351       -2.49285088905671       -0.15909015153949
C           58.17756189665289       -1.23793470861303       -0.26090255070974
N           56.82669797184032       -1.39803755121495       -0.07945061420697
H           59.90832869438177       -0.05595864190063       -0.55320558512792
H           59.97889310615863        2.52542074619995       -0.58781091778378
H           58.12530964425500        4.47994004604711       -0.45043489388745
H           56.40839089443206        5.00624956274650       -2.36377886287169
H           56.42455378643103        7.47588368189837       -2.46988470040056
H           55.88213543350598        9.41352430186733       -1.37842906998923
H           54.58401167270946        7.65812551545719        1.39297321359812
H           54.57357839508378        5.18130435955879        1.50338819419608
H           52.88533057617592        4.53079775943842       -0.54591114919335
H           50.97407885722217        2.63603713707123       -0.43976465552053
H           50.93951734303968       -2.50177531360762        0.40918391137178
H           52.82654657244090       -4.40023266491248        0.70047374597234
H           54.71078948298367       -4.64648791222589        2.65302611807935
H           54.67873998667974       -7.09006362826975        3.07180558824106
H           55.65217982193160       -9.43275039886994        0.61969590068218
H           56.11178318934179       -7.78778525660286       -0.90355130837842
H           56.13757087817182       -5.35159655562794       -1.32432649855881
H           58.04646025729132       -4.48095019691308        0.27689539945577
H           59.92345064801621       -2.62028042281978       -0.26247486314760
C           38.54294828454130       -0.01532244394127       -0.06775280512801
C           39.75862292202551       -0.00304621437523       -0.07535279072438
C           49.40643640038216        0.05593389602486       -0.09888027254744
C           50.62270111215054        0.05365323371003       -0.08871493626929
Ni          44.58153526453076        0.02179803836525       -0.07989596019503
C           41.16811319726196        0.00560349746216       -0.07762400624761
C           41.83609582282333        0.97704158627101        0.67139493062664
C           41.16916883631350        1.93027831610688        1.49899337676773
C           42.12258108290209        2.76777701456020        1.97501812063205
C           43.36898940922210        2.33019988234629        1.42470661592320
N           43.18651384634526        1.19827444946376        0.66332327242164
C           44.56983414973966        3.01108401192159        1.58069450009245
C           44.56885584070652        4.29905593352914        2.31273599387936
C           45.34635126660061        4.46241978848490        3.46229146231503
C           45.34639046870888        5.66074272898083        4.15348480728872
C           44.56855656954793        6.72290502594283        3.69571144552023
O           44.59499857294828        7.88601825517694        4.39539965871943
C           43.79136626402717        6.57618461425127        2.54887519221098
C           43.79169309647190        5.36913810005372        1.86742678272504
C           45.77267109487881        2.53182087750349        1.07653445966747
C           47.01199135170783        3.24215310772583        1.15709188455827
C           47.97098992204303        2.40989707347847        0.68364723446777
N           45.96514656929773        1.29406506949621        0.50629610590029
C           47.31577101084057        1.19976191545749        0.30396809475326
C           47.99668779436473        0.04816525471562       -0.10006933125353
C           47.32958459226860       -1.11513320970992       -0.49392511508322
C           47.99892143959955       -2.31790536008350       -0.87256949726212
C           47.04639487846441       -3.17095153866780       -1.32155321808885
C           45.79699628422435       -2.47984112326400       -1.22975247821517
N           45.97793565357183       -1.23280741751177       -0.67599131828348
C           44.59531534231249       -2.98237869319616       -1.71328286599818
C           44.60174646216257       -4.28234497929227       -2.42413175275550
C           43.84582790123502       -5.35458464590965       -1.94883825677462
C           43.85122967941712       -6.57307726274860       -2.60961246576658
C           44.61234804627347       -6.72902381772818       -3.76579662012881
O           44.64350892433112       -7.90358701200809       -4.44626921913014
C           45.36847694719964       -5.66469802911399       -4.25369270401603
C           45.36313762192511       -4.45481685428647       -3.58284824833828
C           43.38774868074535       -2.31299840315311       -1.55940428249615
C           42.14444191214019       -2.76920472094276       -2.10152553382820
C           41.18455920360940       -1.93219022812341       -1.63767130427453
C           41.84430378231625       -0.96297577337974       -0.82282356544812
N           43.19653084844033       -1.17293521554105       -0.81277468262322
H           40.10789448523809        1.94252242507000        1.68785558944929
H           42.00181098206067        3.60455272104406        2.64342264835921
H           45.94166728070793        3.63231565984398        3.82593247638062
H           45.94223585364758        5.78756707988410        5.04893170334595
H           44.02131037887047        8.55237319030810        3.99358415879548
H           43.19099270644252        7.40692266368124        2.19366300088446
H           43.19649296020845        5.26087050974402        0.96747332500683
H           47.12485455502995        4.24848214684739        1.52590537938042
H           49.03078771932542        2.58645403390875        0.60000409901384
H           49.06279366556937       -2.47613874903775       -0.80458832369249
H           47.17015640472543       -4.17917582908165       -1.68163648298643
H           43.26260219408928       -5.23841147776739       -1.04214819872957
H           43.26769595212575       -7.40544921852667       -2.23111403803285
H           44.08304022689524       -8.56935641216534       -4.02561787377982
H           45.95173641145333       -5.79884588878297       -5.15626087032161
H           45.94132427449613       -3.62315617951151       -3.96970801998891
H           42.03018105104170       -3.61697827709739       -2.75714465126895
H           40.12313503796759       -1.95588498905830       -1.82490564700466
