250
 energy: -485.293401683468 gnorm: 0.000849924561 xtb: 6.5.1 (b24c23e)
Zn          48.41300323852739       -0.00314980852372       -0.06154699013707
C           45.00579316513569       -0.03470528320691       -0.13904944221750
C           45.63965290615958       -1.25650681642245       -0.32847886298425
C           44.96915533530463       -2.51215952566668       -0.52031412963378
C           45.93061841498979       -3.45748373362170       -0.66421674145613
C           47.20176325799434       -2.78762185531842       -0.57418565844601
N           46.99001574406206       -1.45772893297930       -0.36093528812533
C           48.45645548140019       -3.40509895273141       -0.65845399728178
C           48.47504044484027       -4.86494705448523       -0.91303807900269
C           49.04966280793658       -5.73752188178080        0.01667470919723
C           49.06662682991796       -7.10080812531426       -0.21416468502298
C           48.50859009116829       -7.59761544499140       -1.38886716666346
N           48.52528719248788       -9.02766341193079       -1.63752307829417
O           48.03320969666147       -9.42122593880148       -2.66419390222660
O           49.02983239447772       -9.73346206579800       -0.80195363264081
C           47.93445538345527       -6.74643055527435       -2.32900958391116
C           47.91793923384409       -5.38531652773838       -2.08550198204824
C           49.69434129864020       -2.76484655880350       -0.52556314563238
C           50.97696487728847       -3.39635405957392       -0.67350471073385
C           51.91850980657414       -2.43565370752774       -0.49320312366456
N           49.88109198866034       -1.43276192670760       -0.27295320180869
C           51.22208540647672       -1.20785861417103       -0.24306323943048
C           51.84765318936036        0.03256076396512       -0.00657425052069
C           51.18957713082144        1.25823630465659        0.21773116814041
C           51.85181896680165        2.49774374435254        0.50049768016364
C           50.88502397005611        3.43680766498907        0.66036645924183
C           49.62124629768805        2.78081246628504        0.46410119611519
N           49.84381537633644        1.45506257645915        0.20704728219094
C           48.36646607493869        3.39517508879689        0.55458325941327
C           48.34396050432191        4.85176649746859        0.82656354396321
C           47.72503619319673        5.34446187645342        1.97996221855268
C           47.70197166140145        6.70204450847394        2.24161224028399
C           48.29885811610177        7.57779021312432        1.33889913979131
N           48.27524407173134        9.00413865966689        1.60704009223759
O           47.72698738353996        9.37358721521649        2.61406200299821
O           48.80576457618795        9.73130352131243        0.80657735764670
C           48.91762568822370        7.10883933176707        0.18332660141848
C           48.93937386696462        5.74883444975385       -0.06594319503179
C           47.12865837707873        2.75470816089864        0.41079908644375
C           45.84264174839107        3.40107844427848        0.44502463827237
C           44.90644405935697        2.43997846861734        0.24872810336392
C           45.60787767207677        1.19766143891309        0.08240945964591
N           46.95143261526925        1.42289693974484        0.17964616656644
H           43.92062195615731       -0.04433639519635       -0.16525175178146
H           43.89862045983715       -2.64306693791425       -0.53235672687126
H           45.79512865687932       -4.51765599301217       -0.80614989065536
H           49.46951354607738       -5.33987642715578        0.93332535299613
H           49.50376928542780       -7.78447934969152        0.50361183137610
H           47.51110052087883       -7.15741296406883       -3.23761831751608
H           47.48550134653864       -4.71152839146909       -2.81600776623621
H           51.13624725348092       -4.43795625697741       -0.90114063866483
H           52.99101010136609       -2.54032459094035       -0.53225104184549
H           52.92015981322250        2.62373161648779        0.57505668389157
H           51.01517683691929        4.47902383295113        0.90323630163057
H           47.27514887875343        4.65178637370984        2.68171618532994
H           47.23047442571885        7.09161625632406        3.13583200760774
H           49.37082196646236        7.81130063740720       -0.50577659837439
H           49.40622784712037        5.37292144454016       -0.96891155544689
H           45.68147181399382        4.45763354609720        0.58706873364019
H           43.83436894149064        2.55176232674135        0.20995643459078
Zn          88.85517379765443        0.05994993710138       -0.02322883799558
C           92.26081411102963        0.11900796709741       -0.12967223595964
C           91.63045883774784        1.32321100246006        0.15854949240263
C           92.30447435545206        2.55989912680128        0.44027225370500
C           91.34574578007494        3.49139324061765        0.66817233669082
C           90.07265699079524        2.83676217364463        0.51555232643000
N           90.28075977515010        1.52252781666787        0.21796448087426
C           88.81971739962943        3.44271958546581        0.67534676925150
C           88.80427114818582        4.89281232355258        0.98086206788955
C           88.23803948879394        5.35740523789919        2.17230849270072
C           88.22426847067359        6.70869398121132        2.46538758282649
C           88.77687433406075        7.60643388908770        1.55608106641555
N           88.76366952701864        9.02628978614311        1.85775363730831
O           89.25266554978751        9.77313550141324        1.04901157834961
O           88.26456013684930        9.37095023128809        2.89850342072280
C           89.34232991613543        7.16563528364119        0.36277269961483
C           89.35585371805003        5.81158829365173        0.08230822718247
C           87.58046957093156        2.79980364160882        0.57063244527681
C           86.29916799297500        3.44308253312667        0.67165351556379
C           85.35544617529212        2.48385020434403        0.49459088584226
N           87.39075805731223        1.46776438921572        0.32019715958341
C           86.04921205322213        1.24855393151201        0.27600288053013
C           85.42132176367919        0.00553952498269        0.05996826083625
C           86.07713524493454       -1.21883118550220       -0.17779887969625
C           85.41334905838308       -2.47694868281874       -0.35471723533805
C           86.37759823080907       -3.40757509598616       -0.56992047461046
C           87.64107221491345       -2.72304705957693       -0.53802691400854
N           87.42141361630088       -1.39611189824628       -0.28503043721588
C           88.89337369916753       -3.32517647792394       -0.71004392351676
C           88.91056503901093       -4.77633383091870       -1.00945255065105
C           89.55277160019004       -5.66997078131273       -0.14632383586887
C           89.57225247370032       -7.02479715818736       -0.42255456705278
C           88.94776807575353       -7.49195027039939       -1.57574826326470
N           88.96894602916132       -8.91247617306332       -1.87326809276955
O           89.54170838265179       -9.63629347523004       -1.09926979512668
O           88.41282068970294       -9.28081782820605       -2.87634107140895
C           88.30412767019691       -6.61960908508751       -2.44919566052355
C           88.28658474730024       -5.26740124999771       -2.16084819491020
C           90.13217753348951       -2.67565922672296       -0.62888259848673
C           91.41511609620399       -3.28613569531570       -0.86175826165967
C           92.35315653614195       -2.32057814524228       -0.69905199667088
C           91.65574510326849       -1.10710331538659       -0.37636078313689
N           90.31274899569316       -1.35378126699337       -0.34815958931032
H           93.34559474025630        0.13811484793906       -0.16524730262753
H           93.37539764814088        2.68545965752315        0.46640450065006
H           91.48442387920865        4.52832730275280        0.92895457058955
H           87.82227150877152        4.64764480679545        2.87802838845186
H           87.79389186934291        7.07657016660907        3.38904948357749
H           89.76139364328013        7.88482601720713       -0.33067088432344
H           89.78153781707681        5.45762165168583       -0.84942049286647
H           86.14226173145055        4.49608559570371        0.84114009660488
H           84.28308422663565        2.59658777348585        0.50362948632466
H           84.34593421972778       -2.62330472922271       -0.31006590825457
H           86.24622568821623       -4.46655943052335       -0.72303014725260
H           90.02407850273185       -5.29625481976880        0.75524999837547
H           90.06228990879971       -7.72464490275584        0.24361850673308
H           87.82905979690838       -7.00748575855929       -3.34225073867968
H           87.80076730852220       -4.57683990112009       -2.84036352053566
H           91.57316325768765       -4.31865773944909       -1.12890672883571
H           93.42386677254930       -2.40858244651870       -0.79485100779643
C           54.47577192876730        0.05370680587066        0.01086414492728
C           53.25364985675612        0.04624025049233        0.00742906825412
C           55.82540513477915        0.05929802033529        0.00811977919655
C           57.04763178354023        0.05707621859193        0.00491262870672
C           67.96073557912393        0.03308660691655       -0.01050550966756
C           66.73825563057338        0.03665557301851       -0.00942169807225
C           69.30977555364117        0.02754695157531       -0.01076575487020
C           70.53224050543815        0.02099748630855       -0.01171957601455
C           81.44386081255881       -0.02594775825232        0.08150019675580
C           80.22162859553043       -0.02422871949510        0.07195511431231
C           82.79339455465220       -0.02042181017579        0.08353615146745
C           84.01552983631412       -0.01237591869756        0.07814266668030
Zn          61.89331058087158        0.04721775537654       -0.00929954312113
C           58.45333184193304        0.05484695345783        0.00190430596991
C           59.09427147704015       -1.19908971712493        0.05702440137652
C           58.41385407471495       -2.45674632938337        0.14950668827072
C           59.36732034453546       -3.42276746208091        0.17495408827034
C           60.64002475006605       -2.76227026689926        0.08850488837139
N           60.43767384695297       -1.41020771379097        0.02834482925690
C           61.88610310705118       -3.40040797697999        0.09753864137844
C           61.88237512532303       -4.88233814597929        0.13649140780229
C           62.46609437562714       -5.56361057065483        1.20911454085153
C           62.46385377224958       -6.94591451500687        1.24956294890564
C           61.87743605059365       -7.65479890541860        0.20487840065857
N           61.87567106815472       -9.10641282225548        0.24028671168272
O           61.36168267473931       -9.68594877645256       -0.68183736269999
O           62.38658248076539       -9.64154101511195        1.19065724600908
C           61.29290112111976       -6.99629414981819       -0.87329165755407
C           61.29556860190674       -5.61370639637392       -0.90093063433839
C           63.13488407489334       -2.76877973125106        0.07122051447311
C           64.40515106695584       -3.43826647865371        0.02866970376903
C           65.36255161861975       -2.47627581542380       -0.00049136763538
N           63.34294165220120       -1.41609598630557        0.05030930847333
C           64.68698374672697       -1.21261958472726        0.01268244365758
C           65.33320144668775        0.03991364786616       -0.00967478441211
C           64.69198257181102        1.29488070953571       -0.03545936184086
C           65.37253855335325        2.55594671818068       -0.03021288939804
C           64.41906697279585        3.52144823190869       -0.07038706507784
C           63.14621821223341        2.85662702721646       -0.10938695858380
N           63.34870881244487        1.50350829965228       -0.07603723423988
C           61.90038745494159        3.49389745773322       -0.14374680600112
C           61.90400128175278        4.97447498420815       -0.21570917435083
C           62.49075975970322        5.62501208826967       -1.30579718780157
C           62.49150437220307        7.00555912976408       -1.38441352678899
C           61.90506533187048        7.74413176523487       -0.36045840261773
N           61.90346940975272        9.19408377086184       -0.43758731756806
O           62.41982446585072        9.70178347085690       -1.40007526624779
O           61.38716276675126        9.80001778006210        0.46630548851670
C           61.31959056825023        7.11666952635642        0.73560215411929
C           61.31932011659397        5.73529861115747        0.80146938572310
C           60.65132842723023        2.86186145488072       -0.12114799404125
C           59.38081367544185        3.52665280428514       -0.20812024629743
C           58.42349245189276        2.56517130424222       -0.16422082884229
C           59.09926663886120        1.30567937507268       -0.06245481963198
N           60.44364720473118        1.51145580572252       -0.04387180001978
H           57.34337806153700       -2.57748863523485        0.19638530669034
H           59.22233258224174       -4.48765154285613        0.25908978400995
H           62.90871690715431       -5.00014104538153        2.02225684225488
H           62.90831008635111       -7.48211673125016        2.07941766035678
H           60.84656082423228       -7.57107911192098       -1.67585393686545
H           60.85464681067610       -5.08936573691243       -1.74074006558717
H           64.54663438529505       -4.50675374467064        0.00942597467230
H           66.43263457094974       -2.60416877302582       -0.03608555671001
H           66.44308768306358        2.67946906293853        0.00688108299410
H           64.56418371048841        4.58960103667186       -0.05975894608956
H           62.93273665566458        5.03830032730049       -2.10272659977648
H           62.93722205125032        7.51776337658241       -2.22863110890356
H           60.87398383200959        7.71435396786595        1.52168557918762
H           60.87720277365273        5.23540805374838        1.65544193809292
H           59.23947006790488        4.59096964012062       -0.30471813943457
H           57.35325848486190        2.68984302460891       -0.20584590488897
Zn          75.37662057837694       -0.00282830724029        0.01469536611325
C           71.93731248350308        0.01413416661024       -0.00819655309518
C           72.57467956330841       -1.24130760663376        0.05901066773531
C           71.89011557712223       -2.49688998387290        0.15002750635016
C           72.84061782145922       -3.46571265775864        0.17981772986213
C           74.11568120352607       -2.80911355157445        0.09855997842690
N           73.91734121050364       -1.45620714704824        0.03750278428329
C           75.35961184736782       -3.45082870964424        0.11077346728717
C           75.35134761311150       -4.93284580481649        0.14374302507753
C           75.93018111848346       -5.62035277282469        1.21503547850447
C           75.92338855503507       -7.00280784295506        1.24991772232784
C           75.33734726141365       -7.70564654119897        0.20093976932346
N           75.33085807495371       -9.15735777311115        0.23046355489294
O           74.81651282457096       -9.73153542094382       -0.69484431945917
O           75.83934156619178       -9.69798493675846        1.17903316946074
C           74.75759168055981       -7.04090044863476       -0.87599192364551
C           74.76473176454405       -5.65824866777533       -0.89802745427123
C           76.61048279447063       -2.82228314921428        0.09345589770398
C           77.87922604752089       -3.49487013914713        0.05454828427938
C           78.83935503839189       -2.53521119461881        0.04043489128059
N           76.82196429791287       -1.47030198816970        0.08382033390750
C           78.16703844796565       -1.26995528670809        0.05884220257751
C           78.81618486812324       -0.01904801793660        0.05737608986652
C           78.17828096599494        1.23751593075648        0.03464975674488
C           78.86156711266331        2.49686823825785        0.05633159062289
C           77.91127838943072        3.46485604589654        0.00263826934268
C           76.63774018917084        2.80329173545796       -0.06084859161390
N           76.83616445293072        1.44980661272336       -0.02731964815789
C           75.39423787734137        3.44422651709752       -0.11846836809027
C           75.40432176708269        4.92459363310597       -0.19322214523820
C           76.01614376582033        5.57009536086828       -1.27253314430701
C           76.02507011387077        6.95040837422003       -1.35419228445082
C           75.42135208870661        7.69402835954690       -0.34404877595404
N           75.42884758027682        9.14379882229263       -0.42409743053478
O           75.96779696040267        9.64676080747708       -1.37662384397657
O           74.89504536904464        9.75425451781767        0.46637076078179
C           74.81040148750128        7.07169871905338        0.74095824542158
C           74.80244720080159        5.69048407707359        0.81001408900661
C           74.14363802544449        2.81554000818766       -0.11688699877894
C           72.87610823722444        3.48287098329765       -0.22524151190280
C           71.91595444956425        2.52376148292189       -0.19169243648343
C           72.58723301547927        1.26308685854197       -0.07554797990069
N           73.93147327229055        1.46556552001707       -0.03917563847484
H           70.81911118673735       -2.61466264551280        0.19217151947329
H           72.69175462012188       -4.53009488410671        0.26375356212198
H           76.37252548838134       -5.06168886889906        2.03163305452800
H           76.36392255949465       -7.54371342547662        2.07880428358090
H           74.31145543038373       -7.61106744050747       -1.68195799087231
H           74.32754906974650       -5.12917300525141       -1.73682607279786
H           78.01761354927369       -4.56361186253523        0.02758237194878
H           79.90941403115400       -2.66517697961362        0.01219004899178
H           79.93160856883610        2.61769664580921        0.11202084440717
H           78.05849724182075        4.53263441869251        0.01906159855019
H           76.47173443565100        4.97954066291717       -2.05887029385936
H           76.49073893471159        7.45846497716185       -2.19008882522068
H           74.35178355366985        7.67331991222289        1.51648998253708
H           74.34104111940700        5.19479156781881        1.65617873293387
H           72.73824859282432        4.54712373395096       -0.32733407439511
H           70.84675815814337        2.65102310957097       -0.24935955826656
