181
 energy: -310.170895952689 gnorm: 0.000669611517 xtb: 6.5.1 (b24c23e)
Ni          27.87019708266776        0.29836116686981        0.14288811673370
C           24.47747465993559        0.23156999909999        0.02929096142470
C           25.14555596316536       -0.97129442811818        0.12477550267113
C           24.48326691765312       -2.23669242917946        0.20922261426916
C           25.45242648830062       -3.18163034043860        0.21955124292790
C           26.70628763903319       -2.49260334351015        0.12857380357236
N           26.50816508731605       -1.13407438100696        0.10310615471011
C           27.93599515210792       -3.13182758890734        0.04436253785844
C           27.97167747240141       -4.61349210213025       -0.00524622598557
C           27.41292642959433       -5.29707934246866       -1.01469892951538
C           27.42439751040770       -6.80226664329376       -1.07750312803996
N           28.40612283668356       -7.36501723043337       -0.14641923871073
C           28.80266766894908       -6.66305943819261        0.96176603792066
C           28.64922920032252       -5.33107781058680        1.06502368213489
C           29.13836908473114       -2.43850354644474        0.00334976699697
C           30.41356579965227       -3.07508659259062       -0.12720302772950
C           31.34787719173843       -2.09594000343533       -0.07292584859428
N           29.28938755106974       -1.07385638330686        0.10491646831948
C           30.64157490499375       -0.86444649040987        0.08289375993885
C           31.28233027836946        0.36603191583885        0.24148060728863
C           30.58594833165554        1.57013732501688        0.36536333462867
C           31.23206215638192        2.82711106669289        0.57123035664290
C           30.25732317998943        3.76759062402343        0.58206128558840
C           29.01837217941191        3.08247094405342        0.37188855327153
N           29.22987643051088        1.72605144881805        0.26779312412475
C           27.79378843309208        3.72780314235544        0.26142603663829
C           27.76435950719575        5.20895454452591        0.32742303192631
C           27.10922782204677        5.85560253258831        1.30277234790164
C           27.05104351275028        7.35895426237531        1.38107420886054
N           28.06646551324627        7.97525461902418        0.52280501471062
C           28.56771820631186        7.30429704426845       -0.56189522470758
C           28.48099780620797        5.96816492101467       -0.68721095520458
C           26.59895569824089        3.04109928324064        0.09085831724358
C           25.32790227440980        3.68106441952352       -0.08267416210952
C           24.39859483774583        2.69881271096164       -0.14429598613837
C           25.10307024960857        1.45981280726463       -0.01967907921651
N           26.45355789078573        1.67567849237666        0.09589299993012
H           23.39443231529357        0.21051479817936       -0.00756268093364
H           23.41337646891121       -2.36450075343603        0.25664661266316
H           25.34197921417763       -4.25168445300372        0.28707112958178
H           26.90817645949383       -4.79633585740250       -1.83267128965915
H           27.68694938051659       -7.13658831690627       -2.09041499444635
H           26.41729945630964       -7.20118198207902       -0.85343975963789
H           28.34189752361916       -8.36713249325166       -0.04148419406074
H           29.32384083908192       -7.25172783644053        1.70996380507832
H           29.01429886490400       -4.78586986858395        1.92372032592801
H           30.56314764792069       -4.13574103941813       -0.24619266831567
H           32.42083034185735       -2.18294041586289       -0.13182053516722
H           32.29553661196195        2.95635916279256        0.69210769547758
H           30.35700472692371        4.83183200404384        0.72019299913935
H           26.57170380751700        5.32359488072778        2.07907816789307
H           27.23123606232249        7.69133300384975        2.41252615622402
H           26.04440366349338        7.71705294454984        1.09449980564966
H           27.96428983563491        8.97471658443185        0.42212630357428
H           29.11141179209506        7.92409659929808       -1.26775573031131
H           28.92677423777821        5.44987831316587       -1.52418702087106
H           25.17991685386344        4.74638890573556       -0.15287899570166
H           23.33025519480312        2.78495482523709       -0.26452658103353
Ni          54.69685111406402        0.21589254456804        0.14099080095014
C           58.08325134344403        0.25133850540747       -0.00618858032923
C           57.43751297376737        1.41787654957182        0.34883852635599
C           58.11693519431817        2.62699812485201        0.70013436055972
C           57.16229013682523        3.56911677925810        0.88566089028405
C           55.90042099816340        2.93898661812889        0.62926621658983
N           56.07825860697481        1.60709876909622        0.34619854744983
C           54.68564238703200        3.61165120535696        0.59760467161750
C           54.66963267582299        5.07944184502726        0.80219436757719
C           55.31506107376560        5.91459706112431       -0.02538624879572
C           55.32350166610833        7.40753587866344        0.17582083424781
N           54.27226100486379        7.82376098345727        1.10799785899945
C           53.77967378791828        6.95004331861324        2.04191068734292
C           53.91295585634136        5.61727390470064        1.92374373022526
C           53.47877521479521        2.96004193110357        0.37671903798754
C           52.22010736809703        3.63260185523503        0.26882691879047
C           51.27035917698841        2.67257744709738        0.16053917474460
N           53.30421317218489        1.59771751987656        0.28908669866479
C           51.95070590672177        1.41722018892646        0.19737562837261
C           51.29027371693764        0.18707123113285        0.24597165126306
C           51.97100741733217       -1.03202436028091        0.25924861761849
C           51.31502907793887       -2.29738288755913        0.34960330166117
C           52.27413696295561       -3.24348216653297        0.20499143617669
C           53.51339739550719       -2.55230479848423        0.01687695189853
N           53.32019252979197       -1.19170596686656        0.09322587413162
C           54.71702997434458       -3.18575137350693       -0.26592724446575
C           54.72387807559359       -4.65863802515847       -0.43161803730623
C           55.44596104782634       -5.45332739524400        0.37234527029253
C           55.48374578339963       -6.95048352123422        0.20929048475749
N           54.38403580959640       -7.41990023165457       -0.63794140359738
C           53.80833286006305       -6.58591568798038       -1.56086051570800
C           53.91143533415188       -5.24721528499601       -1.48668880416253
C           55.91166808192295       -2.48999586243146       -0.40265640038776
C           57.16034420955887       -3.09969371942538       -0.75544046484476
C           58.10529107764290       -2.13301384649786       -0.68008619618864
C           57.43270970548316       -0.93112735448836       -0.29250378898982
N           56.08361206521993       -1.14901257921370       -0.16340674459306
H           59.16583992889775        0.26271644304936       -0.05638470707681
H           59.18740778294224        2.72253651295248        0.79057104791967
H           57.28816114812007        4.60086180103607        1.17118772535550
H           55.87839688273287        5.55197987033316       -0.87721472094857
H           55.15067874229620        7.91916824594316       -0.78077221695319
H           56.31200587896901        7.73659478576076        0.54760581486796
H           54.33725523394130        8.79066554618953        1.39135842295442
H           53.20333888628015        7.41218630987918        2.83696352344944
H           53.47336279216422        4.94060556683593        2.64257067529360
H           52.09094515576962        4.70257321391043        0.27607167806569
H           50.20247202947752        2.78833372586834        0.06905554427323
H           50.25546440429564       -2.42742061715014        0.50074588692575
H           52.16317017702033       -4.31546035121011        0.22007885362812
H           56.05492716406716       -5.05234187399161        1.17418022966954
H           55.39097438485071       -7.44035604006937        1.18808048602684
H           56.45396554210907       -7.26270144962274       -0.22089038685026
H           54.45703626525865       -8.39242695907080       -0.89938132842408
H           53.19525205492801       -7.08517284432487       -2.30436101577373
H           53.40893129343157       -4.60283906483831       -2.19392179213222
H           57.28432691404734       -4.13524049811773       -1.02758201225187
H           59.16521439153438       -2.20782021004324       -0.86496351737150
C           33.90939494239512        0.41752888541022        0.32619770431506
C           32.68938420028264        0.39292658938827        0.28472136839022
C           35.25996658158083        0.45198427587396        0.38131324038485
C           36.47901859610459        0.49244384634374        0.43730671728078
C           47.31335986552921        0.27508212270638        0.39523102338915
C           46.09635180127994        0.35400086920079        0.44990849646584
C           48.66345395008641        0.21881816295918        0.33878700370154
C           49.88290272824367        0.18591647656717        0.29217789858563
Ni          41.29020346424544        0.64688250478943        0.62182373566415
C           37.88320162603716        0.55145751821181        0.50644156837744
C           38.55421008390707        1.48751700779838       -0.28585626289332
C           37.88604675561668        2.45206289487306       -1.09944192666362
C           38.84996452105130        3.14036877055586       -1.75816775340718
C           40.10391130708353        2.57189320947773       -1.36758885300343
N           39.91076099810066        1.58544553407009       -0.42605374322667
C           41.32149873812197        2.90487426030290       -1.94488488356271
C           41.35185473075382        3.90470519660091       -3.03880898718832
C           40.70744067970519        3.70159295990584       -4.19768044805223
C           40.77536786109899        4.68029543848139       -5.34026365306646
N           41.25137818290548        5.98968933257002       -4.88650405977106
C           42.04169337294646        6.09741430663017       -3.77189090080223
C           42.10772576663850        5.13215185824801       -2.83785783514374
C           42.51765296439138        2.30661872666539       -1.56879542451402
C           43.76100848627616        2.52313310714102       -2.24276014191878
C           44.69824347825347        1.80553394413465       -1.57684614899756
N           42.68784990058413        1.44402981100712       -0.51112349148054
C           44.02744835927410        1.16400893950963       -0.49121224647644
C           44.69398058159079        0.45724187834014        0.51261399764027
C           44.02704804982546       -0.09737503387678        1.60852604114185
C           44.70046441193154       -0.67115028551495        2.72895193379929
C           43.73942398692611       -1.12281649657274        3.57123408110751
C           42.48094576553735       -0.85655758390859        2.94392661494978
N           42.67047330136338       -0.18231781687730        1.75789682076770
C           41.26045808880816       -1.31760456088471        3.41915877061565
C           41.22488601086962       -2.12475195297870        4.66164625685615
C           41.86762190476244       -3.29720882899832        4.76675719871644
C           41.85071572713307       -4.11971791101568        6.02870408665907
N           40.78638938440359       -3.68127961416057        6.93562986659393
C           40.29085711186897       -2.40550873419536        6.87011872792716
C           40.44299587321929       -1.62699793207792        5.78437828706582
C           40.06243803987194       -1.08213180024634        2.75547378045580
C           38.81582915605581       -1.67546121751261        3.13091537875298
C           37.87766862160403       -1.18729762321466        2.28352101027457
C           38.55055468842242       -0.28552951680550        1.40381479054614
N           39.89288485065639       -0.25433486032042        1.67029591684954
H           36.81644270651341        2.58015598182750       -1.14286399302642
H           38.73273022474993        3.95638927794743       -2.45230413628462
H           40.16447643403354        2.78475369917202       -4.39563209553925
H           41.43537960937353        4.29113040983024       -6.13846956517944
H           39.77866750431540        4.81558397379275       -5.78157620865823
H           41.44791522357129        6.63533985001797       -5.63760240751037
H           42.54129649904646        7.05450664415909       -3.66040940472950
H           42.67763667590413        5.26469064821004       -1.92925922191195
H           43.88713448803752        3.13913605678074       -3.11840328209637
H           45.75318267832738        1.71896681138083       -1.78177079581047
H           45.77142905578876       -0.70381601982665        2.84873395122325
H           43.86344770099738       -1.59832504186534        4.53030812606704
H           42.44605377190892       -3.70721929020594        3.94719501476089
H           42.83103546703626       -4.05774383701004        6.53708760215925
H           41.67729931265262       -5.17742008203623        5.78808881231176
H           40.83682481283386       -4.09489135217928        7.85528131793010
H           39.69692394294327       -2.10449503473923        7.72717405925253
H           39.99945476193594       -0.64312385833479        5.72890838369434
H           38.68766462677756       -2.38056621607579        3.93593608557622
H           36.82046492191128       -1.39666777409715        2.25424928723893
