248
 energy: -450.823651098426 gnorm: 0.000565456418 xtb: 6.5.1 (b24c23e)
Co          42.95023354925370       -0.01931717481530       -0.12626977561859
C           39.58633709944138       -0.07526345945613       -0.39413173163449
C           40.27231682446961       -1.26514800817916       -0.50308870113023
C           39.63195858215477       -2.52982865443436       -0.70040762558642
C           40.58110298420178       -3.47729022927910       -0.51852060401056
C           41.80666150798648       -2.78974629036304       -0.23445305676185
N           41.61361592437582       -1.43196350913058       -0.26272437066394
C           42.98405210597380       -3.42136203533449        0.14280775596354
C           42.99506117041499       -4.89734935452251        0.29255526506558
C           42.79720759720443       -5.72504028167166       -0.81212997111305
C           42.80762418310896       -7.10461323671676       -0.67294293651218
C           43.01231474061969       -7.67089813636718        0.58296242292784
O           43.02611846684803       -9.01692056909107        0.76469646364745
C           43.21118250936770       -6.85405110586450        1.69443830117915
C           43.20537913002377       -5.47839052127731        1.54475362454309
C           44.15770958534240       -2.71644838533572        0.35917133530898
C           45.41352294092001       -3.33877287933513        0.65442235731382
C           46.36054699641419       -2.37579337130014        0.55585891506278
N           44.33189641723881       -1.36900053338882        0.13341517630735
C           45.68143306830002       -1.16693420547608        0.21222597300094
C           46.34320009876183        0.02622019901280       -0.08528449984562
C           45.65112707579062        1.21347307146062       -0.33041082668538
C           46.29858490952160        2.45646871954191       -0.60647198237786
C           45.33406407770715        3.40777837427504       -0.59258632198524
C           44.09913621813628        2.74067887119072       -0.31066022484392
N           44.29991061790880        1.38389222650114       -0.20414426662501
C           42.89227106167711        3.39516814438304       -0.11041089789258
C           42.87357794393048        4.87597629565160       -0.09402323205489
C           43.62611925696978        5.58472112136614        0.84587179457775
C           43.61131101180510        6.96792943829800        0.86809347348018
C           42.84476451656189        7.66619503749662       -0.06330082026000
O           42.85598020533210        9.02328233294224       -0.01620044931884
C           42.09474315367745        6.97334788408035       -1.01077610383326
C           42.10947175731750        5.58731409063176       -1.01993739494202
C           41.70067749935287        2.69935292766675        0.03951196718420
C           40.42371683960735        3.32341462389122        0.22906565240960
C           39.49064457510113        2.34987023288839        0.10969662808196
C           40.19940829268926        1.12859517643038       -0.12139980726812
N           41.55448432300650        1.34243196070187       -0.10644160180612
H           38.50727789078833       -0.09267343167849       -0.49235267305065
H           38.58359967028858       -2.65589474408155       -0.91979591662365
H           40.47029870546194       -4.54884888413756       -0.55522750688737
H           42.65074487057031       -5.28551432412124       -1.79248992897748
H           42.65882841128663       -7.74451093230530       -1.53613979567172
H           42.87734111718241       -9.48594137414470       -0.06727457938200
H           43.36719545791706       -7.30848283812993        2.66501957909490
H           43.35029354615068       -4.84208736432714        2.41058914635505
H           45.54482629636416       -4.38509757690397        0.87710775781743
H           47.42674257076909       -2.46125398452565        0.69100844940374
H           47.35731298424296        2.57065587471220       -0.77504874240069
H           45.43697534288519        4.46701572241703       -0.76339750699689
H           44.21419616363227        5.04145212283700        1.57707628329183
H           44.18726731663799        7.51987112340596        1.60054456289858
H           42.29188449174922        9.40421997437199       -0.70259929617223
H           41.50468755590618        7.52091467253320       -1.73791267126088
H           41.53676999603952        5.05007982871685       -1.76771889457591
H           40.27390596086921        4.37326400195477        0.42230155306857
H           38.41709058347290        2.43035711260192        0.17394004072873
Co          90.80006768695004       -0.01562810098418       -0.07122695864913
C           94.15986527997929        0.01902293508656       -0.34801937414747
C           93.46520248505014        1.17040081510662       -0.65042573973818
C           94.09087503312665        2.39068669615087       -1.06001895500791
C           93.13377767493361        3.34746492399040       -1.02578482432476
C           91.91950896461651        2.70700869356830       -0.61250872796086
N           92.12445117914520        1.36394766539319       -0.42811648723661
C           90.74976975609670        3.38477869594002       -0.29103445127284
C           90.73274401668729        4.86604277311860       -0.36416734394218
C           90.88222086974261        5.51681502121913       -1.58850073827765
C           90.86556848458130        6.90138457313123       -1.65989087628093
C           90.70436236949065        7.65140629014785       -0.49730052281013
O           90.68648078442075        9.00903863851173       -0.52110100722709
C           90.55537364387408        7.01226755804342        0.73219595135880
C           90.56631500413121        5.62988803793418        0.79285410600141
C           89.59363257085934        2.71638324267783        0.08010363791504
C           88.34719428298476        3.36728566484117        0.35324307474222
C           87.40495798598613        2.39651233235536        0.42179706313490
N           89.41977677745422        1.35042950544714        0.03718904442601
C           88.07761739358210        1.15650743294651        0.19665612388753
C           87.41217689372256       -0.06261224929227        0.03266724185996
C           88.10583914808484       -1.26693153691558       -0.11761747155734
C           87.46285919530845       -2.53315882122230       -0.27122537942696
C           88.43126239724063       -3.47520848906435       -0.16488034839408
C           89.66321626534928       -2.77916989401018        0.05370781980854
N           89.45674026909272       -1.41904277881644        0.01943147878533
C           90.86927002173709       -3.39953221688196        0.34615887186748
C           90.89472541055473       -4.86707866448986        0.53662327952180
C           90.10982252381599       -5.46796836303191        1.52441585821598
C           90.13164868668729       -6.83845496853884        1.71079175204199
C           90.93814860922515       -7.63404564815628        0.89862763424880
O           90.93296322403258       -8.97557810072646        1.10599285888058
C           91.72084805936215       -7.05005956707248       -0.09483915725102
C           91.69889699716148       -5.67514087931520       -0.26844243308502
C           92.05531219580624       -2.68153889541934        0.43856680821054
C           93.33068563987604       -3.26436618870779        0.73757468098012
C           94.26146151185164       -2.30724978348559        0.51057468422165
C           93.55200373320602       -1.13453560943036        0.10002881464862
N           92.19808632317222       -1.35541048863025        0.11862688561032
H           95.23943098023322        0.02939261904360       -0.44179454532684
H           95.13535899914810        2.48781554953871       -1.31033786650655
H           93.23347591937798        4.39916942396595       -1.23991472761723
H           90.99495380852102        4.93368967829815       -2.49568337327252
H           90.97598821362587        7.40302174958439       -2.61532438731935
H           90.79781931550963        9.34730675200410       -1.41971587324682
H           90.43367143833935        7.60846620956630        1.62806555992889
H           90.46119611739965        5.13222081802418        1.75034833761160
H           88.21663113997251        4.43284561046000        0.44881168419106
H           86.34533340256598        2.49555193400709        0.59420797540152
H           86.40453219661278       -2.66758689319056       -0.42687002138217
H           88.33194957483026       -4.54639226600471       -0.23176478585185
H           89.49161903172288       -4.84824887459244        2.16426727682623
H           89.53083953509093       -7.30587248064698        2.48109471843104
H           91.52573287380268       -9.42985749204554        0.49219131849277
H           92.34199702063948       -7.67356291955303       -0.72896366605387
H           92.29708361366636       -5.22432739103402       -1.05248089553750
H           93.48172092934810       -4.27767935708727        1.07280014713308
H           95.33366159702500       -2.37022539727564        0.60804909162018
C           51.54475452213320        0.05411771212209       -0.11907159744940
C           50.31636323556068        0.05166413542552       -0.12070193392713
C           48.97141047621319        0.04567456282868       -0.11490608065262
C           47.74778636829402        0.03840806748540       -0.10419425643015
C           52.88941529612275        0.05508970381346       -0.11343014620335
C           54.11341384277608        0.05304422321394       -0.10458986308547
C           67.50099558176329       -0.05868819868305        0.04162687171764
C           66.27119525432894       -0.05133625631366        0.03595555895232
C           64.92903500552052       -0.04204137799638        0.02326239033923
C           63.70399036664476       -0.03055219392960        0.00665288015703
C           68.84315297494827       -0.05975281481499        0.04077330968939
C           70.06848138586004       -0.05879315733515        0.03341815167185
C           83.44381611400627       -0.09290357245258        0.03907164318304
C           82.21396470409807       -0.09513593561455        0.03497152553783
C           80.87210887918160       -0.09186850124599        0.02877652895119
C           79.64675731697629       -0.08634374614982        0.01660877412283
C           84.78597931627429       -0.08724231975937        0.03962163460454
C           86.01105948047459       -0.07865595796432        0.03799182911884
Co          58.91020344954647        0.01908237205318       -0.06053302699527
C           55.51656869168679        0.04725457392644       -0.09594025412869
C           56.19696171673678        0.90167540282107        0.77613860759327
C           55.54747529445986        1.76581778086938        1.70890426167844
C           56.50567654040191        2.58132322688059        2.21443934298638
C           57.73475251845908        2.21781820707752        1.57757099036216
N           57.54293685002689        1.13870157467417        0.74792965644632
C           58.91626410380704        2.94207440177420        1.68020103671703
C           58.91817596926853        4.21269509804336        2.43784451777013
C           59.78855741301449        4.39666184682337        3.51578749207995
C           59.79266691353159        5.58156301997488        4.22923338591882
C           58.92584025211490        6.61087594892478        3.86562623429331
O           58.96032462266882        7.76206791382229        4.58338572288701
C           58.05520964435149        6.44360134011581        2.79087408162253
C           58.05133415422597        5.24921809354710        2.08801799277014
C           60.09560218755956        2.50349679764696        1.09408995968139
C           61.33056384578368        3.22713557866353        1.12109684761065
C           62.28631836245745        2.38654917172133        0.65413281692846
N           60.28293498575598        1.25942517232182        0.53657041762412
C           61.62918939298849        1.16098690514112        0.32961166757215
C           62.30360447804933       -0.01516320269059       -0.01473596053166
C           61.61389657641259       -1.17380577090456       -0.38674292878632
C           62.25347909159073       -2.41049202757692       -0.70406322428693
C           61.29561661837729       -3.22225283745795       -1.21573161694432
C           60.07686189547682       -2.47136114309046       -1.21890857128693
N           60.27376513079682       -1.23801025238726       -0.64209426320523
C           58.90487890823820       -2.87992939857900       -1.84066504429490
C           58.90379369377361       -4.14110238312325       -2.61422152201650
C           58.01591197318189       -5.16970815915753       -2.29542895910253
C           58.01726066256371       -6.35471663661450       -3.01405988938963
C           58.90705389174591       -6.52029424898644       -4.07320406171165
O           58.93961642666692       -7.66234602620232       -4.80564673227811
C           59.79565669074443       -5.49890700506043       -4.40537764575506
C           59.79372008918180       -4.32352739644463       -3.67632224794215
C           57.73314682379789       -2.13847386742760       -1.75348699802416
C           56.50945387043395       -2.48056702453333       -2.41243549332070
C           55.55325657403503       -1.66022168771444       -1.91119138595680
C           56.19931291555222       -0.81210484556659       -0.96146988324868
N           57.54212463530914       -1.06371047479336       -0.91748022850297
H           54.49280213009199        1.74462539347423        1.93142892926834
H           56.39931034870578        3.36042436186001        2.95159321960728
H           60.45325865372589        3.59144827957444        3.80801189556738
H           60.46034269430159        5.72337623515972        5.07007229744216
H           58.31918852824828        8.40467895203096        4.25138843432961
H           57.38571527033729        7.24890694502124        2.50829569051245
H           57.38278484611794        5.12611725245632        1.24328610254304
H           61.44252434559202        4.24511256640455        1.45699242357001
H           63.34359795809420        2.56374277647611        0.53969923688106
H           63.30191484044047       -2.61353002079687       -0.55608370325252
H           61.39567085666219       -4.23794483787245       -1.56225280022905
H           57.33246559173367       -5.04836576795282       -1.46245286312743
H           57.33121275207233       -7.15416253156486       -2.75556226193349
H           58.28266761185224       -8.29989471645220       -4.49523659414519
H           60.47817113492989       -5.63933145809065       -5.23440199247957
H           60.47595043132944       -3.52432732070634       -3.94361814554729
H           56.40470124990658       -3.25092246255528       -3.15894113872843
H           54.50208889022401       -1.62510922440735       -2.14815859563200
Co          74.85803158186445       -0.05913354851883       -0.00125402464523
C           71.46851650498940       -0.05343555289898        0.01525587946530
C           72.16021715913242        0.81509024072195        0.86694937367757
C           71.52626360072088        1.67978183004669        1.80948333259457
C           72.48578926634194        2.52032028091194        2.27097986503302
C           73.69958507448698        2.16937273545903        1.59911640325776
N           73.49876674726127        1.07571784613734        0.79084953828362
C           74.87178165551514        2.91454804518850        1.64588736270619
C           74.87499071575427        4.20304198052206        2.37107814567876
C           75.78229033484925        4.43450138959384        3.40906161584625
C           75.78383828729191        5.63580760490433        4.09421530503108
C           74.87706972597496        6.63453037442443        3.74185174914041
O           74.90978436268944        7.80238464942817        4.43147796982618
C           73.96903690447699        6.41979184415508        2.70702938127408
C           73.96817617601496        5.20912058758984        2.03287873863381
C           76.04100449443510        2.47462042055398        1.03855434336315
C           77.26989482515519        3.20825968320084        1.01606632989810
C           78.22464806076437        2.35712373100419        0.56514458083449
N           76.22788082350311        1.21516016104196        0.51717458397476
C           77.57173452241722        1.11625971711952        0.29636440591153
C           78.24727581347247       -0.07305868347054       -0.00151801522409
C           77.55569966645368       -1.24369957837488       -0.33288509919893
C           78.19093147071177       -2.48726628712218       -0.62978439976847
C           77.23408817356299       -3.29746030146635       -1.14764065201132
C           76.01985862986652       -2.54051444231495       -1.16892270133865
N           76.21789838722390       -1.30397507928608       -0.60264415286257
C           74.84790069618531       -2.94573577406068       -1.79686505130340
C           74.85155745335541       -4.19986102192043       -2.58026479700710
C           73.95633547829166       -5.22895520374131       -2.28369527411239
C           73.96210587320962       -6.40566967451331       -3.01564769023820
C           74.86401062699312       -6.56275077088698       -4.06595894170203
O           74.90044348499514       -7.69557202244373       -4.81164864673324
C           75.76159339445933       -5.54166917759673       -4.37461020346215
C           75.75531770530253       -4.37489313115273       -3.63226936844117
C           73.67487671475121       -2.20853917121194       -1.69975508187196
C           72.44335912743186       -2.55412518522804       -2.34263239595524
C           71.48762107898266       -1.75055469253556       -1.81363800690422
C           72.14244206664215       -0.90506746983791       -0.86754341278838
N           73.48743863597409       -1.14005745991690       -0.85310310947574
H           70.48028731945010        1.64289224017270        2.06806171465886
H           72.38939988510093        3.30729354069861        3.00111751978684
H           76.47742246295192        3.65275202164756        3.69427010969538
H           76.47980121248298        5.81416086839136        4.90472405512647
H           74.23968618712233        8.42131906997801        4.11129791981225
H           73.26810495867831        7.20100317080663        2.43303257749146
H           73.26989537837964        5.04904776334018        1.21893604570126
H           77.37969837327728        4.23861449085928        1.31252810178214
H           79.27870173229573        2.53703078202304        0.42788405351440
H           79.23658237767293       -2.69492289202937       -0.46912519357289
H           77.33214695624936       -4.31645095644552       -1.48498919680774
H           73.26427184504108       -5.11534541395930       -1.45674009858889
H           73.27002826780135       -7.20529294484703       -2.77443010050813
H           74.23804928485737       -8.33495364797267       -4.51663506065851
H           76.45422924245050       -5.67579680648350       -5.19625237036889
H           76.44441329213998       -3.57576696072786       -3.88146676117486
H           72.33247690009654       -3.31632795455028       -3.09657623554790
H           70.43200410505214       -1.72441338842135       -2.03116101476232
