138
 energy: -219.487438059928 gnorm: 0.000319269866 xtb: 6.5.1 (b24c23e)
C           14.24221186818551        0.67156398982849       -0.00429627033327
C           14.84307337822652        0.69713209563802       -1.25635113678210
C           14.18681523284393        0.85317242397668       -2.50908383868405
C           15.12920819908286        0.75142861729752       -3.49393708862682
C           16.39445818584611        0.54703588815477       -2.87394808588294
N           16.17117270026596        0.52260104680529       -1.52594260309661
C           17.63591781899591        0.36871643619711       -3.49633235425610
C           17.65234500555370        0.41661825000789       -4.97739400286487
C           18.08202735226581       -0.68598292381079       -5.71795018468335
C           18.07713986300699       -0.66486839460734       -7.10226342546495
C           17.64111875575238        0.47411901735497       -7.78516173177084
N           17.66039732863470        0.56772090239112       -9.16957282340040
C           17.58544751965467       -0.64583524969372       -9.97236702637786
C           17.22980192102767        1.59042712216896       -7.04684842161545
C           17.22930795508290        1.55730766128899       -5.66499960534471
C           18.84173985940158        0.15626044400247       -2.82261910446688
C           20.13304702488703        0.08689930039058       -3.48157517229861
C           21.05366139107262       -0.05805284334021       -2.50549674527271
N           18.99951911408455        0.04878693647575       -1.47435907232812
C           20.32325226667265       -0.08327422812473       -1.25344747639341
C           20.96222863292517       -0.21296104227789       -0.00329059084906
C           20.33044478177635       -0.27208429222330        1.25413711692765
C           20.97655035375994       -0.42088761420281        2.50919207742607
C           20.01303586657234       -0.43980200548203        3.48030409700635
C           18.74771183436694       -0.30270713156714        2.84648947679036
N           18.99193998788238       -0.20239703805313        1.50190559184520
C           17.49275996235251       -0.23005159369895        3.46385560526664
C           17.45519273769423       -0.42949038765376        4.93010072989461
C           16.92834425927715        0.54759940217976        5.77721841065886
C           16.88063811476309        0.35820634754651        7.14780956024608
C           17.36321665954248       -0.82708577836011        7.71039013755152
N           17.28193427213441       -1.09783072900466        9.06782479578423
C           17.19287164945943       -0.00062337022911       10.02144750855983
C           17.88904584795907       -1.81217211684461        6.86512078113632
C           17.93899191816061       -1.61168754889438        5.49892671543081
C           16.29028117520378        0.01887877976154        2.79169554407133
C           14.98507977238912        0.05771052404961        3.43236527825586
C           14.08992366704776        0.33254153042032        2.46188860182310
C           14.84366173772269        0.43818356029473        1.22567853997655
N           16.16392146915574        0.24092956656009        1.46150677030736
H           13.16682407270065        0.81944435749391        0.00053303527362
H           13.12635882694853        1.00880056997013       -2.62864223359175
H           14.96475360008729        0.80160417841782       -4.55811795251336
H           16.89416687568022        0.37145843507495       -0.83038376525189
H           18.40493660808280       -1.58223640982603       -5.19939774979762
H           18.41286216694712       -1.53951421160715       -7.64579660300111
H           17.04992414268544        1.29689370170447       -9.51875510781150
H           16.73841949956105       -1.27448381246666       -9.67442970873723
H           17.46713518605644       -0.35275056170725      -11.01553862832653
H           18.50892644047651       -1.21764990194144       -9.87327831913848
H           16.90873662971111        2.48612334512323       -7.56823765437052
H           16.91650091866520        2.43321757698398       -5.10703249280377
H           20.29420135176570        0.16611041310828       -4.54456002776351
H           22.12495605725444       -0.13968166373572       -2.59801086709318
H           22.04343902856126       -0.49962792984402        2.64319076610079
H           20.16485368868155       -0.52221275751287        4.54422667007230
H           18.27100614137491       -0.07583980583232        0.79911447390052
H           16.56917648717293        1.48046522291754        5.35637227915822
H           16.46522992360357        1.13757859161235        7.77480916716098
H           17.93039144449360       -1.81697979677032        9.36456750869395
H           16.22895251800079        0.50075925742097        9.92515106445919
H           17.99610707432792        0.73006590428000        9.87233258059850
H           17.26887617377914       -0.41982502846091       11.02477622631758
H           18.25486766499000       -2.74054480417952        7.29110266414945
H           18.33545563047103       -2.39046813666371        4.85646066344445
H           14.79859549292030       -0.12043142458450        4.47917186703523
H           13.01937968010009        0.44077327520833        2.54139675756455
C           34.29781181017324        0.58691097507678       -0.02359665404520
C           33.69640717221591        0.68796417483439        1.22440403735471
C           34.35295763688266        0.90559826856870        2.46769467674952
C           33.40718662983149        0.87694541963480        3.45418870801616
C           32.14014966633751        0.65551897476636        2.84383326796602
N           32.36536328397894        0.54888571621693        1.50022170452392
C           30.89577340996563        0.53071235440905        3.47346469054277
C           30.87809235061559        0.67645962582769        4.94813932385849
C           30.43607346376096       -0.36862813095423        5.76112219651398
C           30.43624250742154       -0.25190414321125        7.14073077759482
C           30.87992924868714        0.92771629096995        7.74520586836407
N           30.85458930458215        1.11805529630732        9.11951130936419
C           30.91139787973301       -0.03669327583883       10.00604298773028
C           31.30569954749145        1.98608324396558        6.93338989681102
C           31.31073271458991        1.85752665164891        5.55721273860532
C           29.68859759986027        0.28806168488568        2.81271432882056
C           28.39666340756475        0.26503327110486        3.47377051895153
C           27.47567464021146        0.06635282369619        2.50761426412188
N           29.53048886402053        0.10268742329612        1.47287253734871
C           28.20611363773297       -0.03435899435018        1.25936518947763
C           27.56587865814599       -0.22707770283872        0.01797753980322
C           28.19631032780030       -0.35020170727075       -1.23540263357443
C           27.54787174883071       -0.55087208669660       -2.48203410842797
C           28.50992395741510       -0.61616319449797       -3.45248301070595
C           29.77688873304515       -0.45902622597611       -2.82650743132657
N           29.53491791981329       -0.29935675406823       -1.48720398356597
C           31.03154622784379       -0.42182327935753       -3.44731906168406
C           31.06514911720713       -0.67418835399158       -4.90552079541790
C           31.59809339285330        0.26956906147552       -5.78598591800314
C           31.63864793900901        0.03510997554227       -7.14975561826963
C           31.14257185890236       -1.16321495520105       -7.67143378058593
N           31.21383359334877       -1.47743068475668       -9.02018603407325
C           31.30139592386672       -0.41045042772568      -10.00781091884406
C           30.61280992272235       -2.11601598222521       -6.79235960285340
C           30.56999717369349       -1.87056941957820       -5.43321362262845
C           32.23774914503772       -0.15988347004249       -2.78678017126101
C           33.54246262693212       -0.16726619276719       -3.42960615203286
C           34.44305638046838        0.13361175964771       -2.47197785651796
C           33.69247877040277        0.30410755715862       -1.24113176400100
N           32.36906683430357        0.11595852691642       -1.46733532578166
H           35.37538667212751        0.71747449317167       -0.03471025824559
H           35.41549716753506        1.05150821271617        2.58085096562371
H           33.57026871834907        0.98698362472637        4.51407552758522
H           31.64157356503149        0.36902242578596        0.81238245322079
H           30.10678615400158       -1.29567171415885        5.30441119002424
H           30.09044748549585       -1.08385886623097        7.74190426384565
H           31.47077284894458        1.86366958272189        9.42059056723314
H           31.75439778996695       -0.69263972645837        9.76006700564539
H           31.02459251734657        0.32789638212666       11.02700802291360
H           29.98305687078291       -0.60533645456266        9.93963676577826
H           31.63383517520666        2.91249379022236        7.39304840528314
H           31.63451554449430        2.68952563722490        4.94130221113447
H           28.23541945442486        0.40748359034267        4.53010802334466
H           26.40399760242194       -0.00475194636363        2.60424264046730
H           26.48041761855249       -0.62973946421395       -2.61134124881180
H           28.35610460481483       -0.74351420300701       -4.51167179439989
H           30.25724428915720       -0.14576008853988       -0.79127667348308
H           31.96770857426589        1.21212226257627       -5.39696263547314
H           32.05871139055951        0.78965698373426       -7.80344153629142
H           30.55811005106458       -2.20078065051254       -9.28965877698926
H           32.26919227476961        0.08741725451369       -9.93522861070671
H           30.50405649980126        0.32961248619936       -9.87408833174030
H           31.21389974334499       -0.85957860541455      -10.99714184630835
H           30.23751822614120       -3.05467901414297       -7.18634687195279
H           30.16973612823323       -2.62456290993370       -4.76409964913934
H           33.72451614837337       -0.39160978240831       -4.46828872321077
H           35.51499825218663        0.22221550719465       -2.55667490494898
C           23.58912662308024       -0.30052133619601        0.00845483715999
C           22.36682144685448       -0.27771614023671        0.00350031406565
C           24.93862075844129       -0.30398225896122        0.01156640800881
C           26.16099001345322       -0.28562030646632        0.01493294987233
