233
 energy: -364.700612808355 gnorm: 0.000942107824 xtb: 6.5.1 (b24c23e)
Co          30.47067613010204        0.04884931304094       -0.07286653342743
C           27.08477875642008        0.14532248015481       -0.21148661449638
C           27.73999494752319        1.15779690955991        0.45476704010958
C           27.06758503119256        2.24276281517346        1.10328488526019
C           28.02943821137137        3.08288969069483        1.55112008755589
C           29.28700748552734        2.51306854701084        1.16579226348864
N           29.10162901059881        1.31208696980720        0.52885606106715
C           30.49947710344821        3.16393504334496        1.32368560625327
C           30.51499032886067        4.52194276647699        1.93594176451950
C           30.31960290687222        5.65121728462962        1.13566474705829
C           30.08926763073254        5.49473469330550       -0.34385718108465
C           30.33903451580207        6.91277192397052        1.71902500249342
C           30.54814403709307        7.06539049490480        3.08568387854347
C           30.58763418838137        8.43724914577187        3.70300035956642
C           30.74189365774363        5.93418560732415        3.87202891409538
C           30.72776164142232        4.66305461629757        3.31026839469760
C           30.93950107069931        3.44313929531551        4.16656110903350
C           31.69661008287982        2.60325239454865        0.91535246648280
C           32.95746187508590        3.27238392630875        1.02527542012275
C           33.90342349747824        2.38631012644170        0.63328245148300
N           31.86567254679365        1.32542058854685        0.43226457118979
C           33.21751953238812        1.17955072549012        0.29224589887128
C           33.87950603575401       -0.00416901384499       -0.03857220657546
C           33.18959636797656       -1.17749488712314       -0.34901473921725
C           33.84422423617233       -2.41625156214124       -0.63145674987225
C           32.87516164186257       -3.29748069424941       -0.97498952964342
C           31.63304862935269       -2.58816888682327       -0.91058128406885
N           31.83484447598775       -1.29396866295885       -0.48576796361466
C           30.43030268496090       -3.12211957134121       -1.33660146727472
C           30.40893937547240       -4.50981056608362       -1.87807972398864
C           30.66954205211781       -4.73444927622989       -3.23330272510416
C           30.97812818485059       -3.57475549926649       -4.14231985435745
C           30.64261517126970       -6.03302166099328       -3.72696450960948
C           30.36259319580556       -7.11032031256156       -2.89162531443554
C           30.31959031198707       -8.50790988503333       -3.44802763399824
C           30.10665154177786       -6.87478728153219       -1.54532366811693
C           30.12710886009304       -5.58378901899254       -1.02959789145378
C           29.84914507144103       -5.33607810497282        0.42906637571227
C           29.24607809346820       -2.40416799409731       -1.29238181531240
C           27.99390641412102       -2.91524011096884       -1.76685334272629
C           27.05449416738589       -1.99007979793497       -1.46168558377126
C           27.73396244674440       -0.91994767726949       -0.79592484976764
N           29.08293714016155       -1.16473173331672       -0.72821902502976
H           26.00307805595056        0.18104038115819       -0.26567705106431
H           25.99622912590849        2.33260656399826        1.18819610466962
H           27.91902986207215        4.01362783370046        2.08401892293063
H           29.16039649761251        4.95060136953515       -0.52612275075746
H           30.90313949464086        4.92650623003018       -0.79768104090251
H           30.02494245179017        6.46647896070144       -0.83250906650296
H           30.18766617393184        7.78956238019100        1.09787733385420
H           30.22390578506803        8.41127285261099        4.73052496303993
H           31.61488251601203        8.80908871399744        3.71628144452661
H           29.98032623532549        9.13897668772485        3.13088189021860
H           30.90537823078010        6.04391709229439        4.93913042274071
H           31.84327281229913        2.91557894794016        3.85536991076891
H           31.03986540758687        3.71689371501577        5.21638666098672
H           30.09897473605622        2.75474454273892        4.06176003556424
H           33.08354970922966        4.28767599545359        1.36492828644726
H           34.97258769451714        2.51607571319532        0.58485326956648
H           34.90949367054677       -2.57156785629531       -0.57303088570819
H           32.97441661290453       -4.33213886546596       -1.26085369747411
H           30.16941456160571       -2.84235916303799       -4.11241133484246
H           31.10917901990506       -3.91045777240084       -5.17057292245854
H           31.89317725067855       -3.07451570293506       -3.81920898736988
H           30.84426594704124       -6.20840952682900       -4.77867845734009
H           31.11209777289028       -8.65568304191528       -4.18254756152878
H           30.43142809482161       -9.24737470529414       -2.65502603262309
H           29.36232111708012       -8.68141825858182       -3.94500142410298
H           29.88894501102308       -7.70848705947549       -0.88577723441323
H           28.94710025445169       -4.73184886034494        0.54436732413062
H           30.67653943582199       -4.79045645658847        0.88629354709433
H           29.71023533209167       -6.27514813000194        0.96391075960576
H           27.87068192844233       -3.86518649093102       -2.26169251309796
H           25.99259383157053       -2.01561234216896       -1.64819860116299
Co          62.42913852970052        0.00157602328661       -0.10490539372871
C           65.80915132548350        0.01240913672681       -0.24375965117357
C           65.14941123779677       -1.17934915295463       -0.45432527086669
C           65.81103766339189       -2.42281927279020       -0.71168383542252
C           64.84427044740463       -3.32449815707690       -1.00311325566165
C           63.59411273440743       -2.62648957007630       -0.93453580207264
N           63.78801226404603       -1.32443307774808       -0.54745650181904
C           62.38833612079777       -3.16849230400533       -1.34903272067678
C           62.36431701071541       -4.56093181283860       -1.87740908782611
C           62.64374382503011       -4.80417224424678       -3.22502444411966
C           62.97412929326135       -3.65845342170243       -4.14411458960188
C           62.61483473302908       -6.10914171680896       -3.70345906027401
C           62.31415367404982       -7.17331181170276       -2.85997759701503
C           62.26621729056479       -8.58041948203622       -3.39138849977806
C           62.03701791278047       -6.91890896032713       -1.52043431273812
C           62.05850075322352       -5.62245227272043       -1.02056652506391
C           61.75547094449316       -5.35453876126582        0.42952835528741
C           61.20488410594042       -2.45219088568513       -1.30059945771038
C           59.95125020582110       -2.95645988420892       -1.77344149257788
C           59.00930906937712       -2.04720657143317       -1.42555806131363
N           61.03721731420692       -1.22372784825862       -0.70364625292944
C           59.68940942009031       -0.99660020107690       -0.73492672915745
C           59.02840367184571        0.02762381537562       -0.05391435327750
C           59.72286810181106        1.02583292307509        0.63247392682239
C           59.07927264923519        2.06364824768571        1.37520683941089
C           60.04944533746675        2.93099102782777        1.75132795591678
C           61.28189950760796        2.42095321122435        1.23068517422602
N           61.07482940315859        1.22118170083179        0.58816374310854
C           62.47427009437862        3.12262863197629        1.25749541825310
C           62.49409525693944        4.48849328766888        1.85144578119492
C           62.16106057847619        5.59470151736371        1.06387372342360
C           61.77796996212214        5.40304673108557       -0.37938455325236
C           62.18497790919605        6.86500018770692        1.62669403490944
C           62.53245726741787        7.04953635380780        2.96139634410793
C           62.57201955383319        8.43395069373126        3.55004179679788
C           62.86005681628632        5.94158496359834        3.73542770197829
C           62.84430336815456        4.66152553275871        3.19318846936613
C           63.20002465346867        3.46679143581933        4.03725748365733
C           63.64766787467599        2.60087242226790        0.73637589010209
C           64.89422685046013        3.30804267613927        0.71885447085086
C           65.83355263883921        2.43303922062548        0.28915374638326
C           65.16001190278078        1.19257866989097        0.04816302755854
N           63.81296461242339        1.31788514575946        0.28030978413843
H           66.89139761391536        0.01907881788478       -0.29772761741584
H           66.87969355613444       -2.56373228067594       -0.67650734327064
H           64.94778449576188       -4.36674339477910       -1.25914098882115
H           63.91196320627033       -3.18911255880132       -3.83993261199734
H           62.19179062815284       -2.89860099528777       -4.10207394762674
H           63.07506680622416       -4.00200982623130       -5.17322833979172
H           62.83148731869343       -6.29795696406300       -4.74983328337826
H           62.59872350475676       -9.29193379646020       -2.63496720066416
H           61.24170915377285       -8.83741713067046       -3.67061472840135
H           62.89568841536988       -8.68472866165899       -4.27530184445672
H           61.80170928981995       -7.74331087135727       -0.85523998147915
H           60.85116510297910       -4.74955757066277        0.52053562402390
H           61.60725326669139       -6.28611302275053        0.97484819988568
H           62.57428496537486       -4.80192015346556        0.89360470488244
H           59.82592727395031       -3.89108312357303       -2.29590232624901
H           57.94529039982019       -2.07736218381307       -1.59678597454595
H           58.01896761712206        2.11180261862190        1.56462833632786
H           59.95585316626920        3.84396560868925        2.31692198085659
H           62.56392812665242        4.86672165931720       -0.91401161152937
H           61.61251269438354        6.36238660320671       -0.86875178787018
H           60.86258301794026        4.81236603830719       -0.45168234474581
H           61.92716904688913        7.72405122224363        1.01589090311596
H           61.77637756134726        9.05374337159007        3.13534350654556
H           62.46417658599292        8.39989908058807        4.63425200496741
H           63.52741525327796        8.90986460949289        3.31698739861788
H           63.13037073853104        6.07543948229624        4.77776648142596
H           64.10883380657030        2.99454738130737        3.65872262171430
H           62.39990646482779        2.72522765615254        4.00336896862870
H           63.36507872916804        3.75806513103662        5.07417763651531
H           65.01507878326650        4.33869251231738        1.01160086999463
H           66.89237598913925        2.58808859480203        0.15514001749320
C           39.07939237613032       -0.03652878661798       -0.03430460673529
C           37.85079327710693       -0.03725618696053       -0.03925960691070
C           36.50695682512934       -0.03087218774588       -0.04428294385723
C           35.28312236424967       -0.01842924543451       -0.04212417786090
C           40.42294148060943       -0.03910012955613       -0.03240502723204
C           41.64709686087956       -0.04679907475351       -0.02394824922849
C           55.05715283319449        0.05466708779560       -0.04201125444398
C           53.82874993174118        0.05156996949210       -0.03752630503975
C           52.48503054969002        0.04912157745078       -0.03503525203638
C           51.26105598597981        0.03446478295754       -0.02511030711263
C           56.40116160960164        0.04908441495695       -0.04587342812518
C           57.62486801539036        0.04422740671927       -0.04587972526623
Co          46.45345864457526        0.01121590967304       -0.02499615870087
C           43.04924216174539       -0.04722397730951       -0.02035808237922
C           43.72645881654334        0.37856432369790        1.12586499582621
C           43.06485815769800        0.82157799380291        2.31242643003935
C           44.02025200147393        0.94596105641009        3.26565599567823
C           45.26122781074857        0.58232996337341        2.65296327251348
N           45.07436439509913        0.27759256612338        1.32510802102674
C           46.44860550865642        0.42850472963047        3.35001530280142
C           46.44254855729916        0.61348555166159        4.82752438309770
C           46.74524140888333        1.86247666635752        5.37728931288585
C           47.08195989127730        3.01961833936740        4.47512005492425
C           46.73193603350595        2.02095001793373        6.75796831513696
C           46.42294884874308        0.95526968494017        7.59726073902836
C           46.43174121654631        1.13591046355528        9.09109566315032
C           46.12614091161574       -0.28340269523934        7.03837918148303
C           46.13149804495637       -0.46507477317716        5.66041022513291
C           45.80437639352392       -1.80716758655126        5.06211692883782
C           47.64087730992351        0.11273285448428        2.72047996310420
C           48.88566493976307       -0.04016575274748        3.41024657928597
C           49.84603720596679       -0.14392628773585        2.46004461868211
N           47.83016431200100        0.04619068176859        1.35931232986455
C           49.18257717741697       -0.05948303032673        1.19712346591895
C           49.85876036009299        0.01711941240770       -0.02326390038029
C           49.17687529916443        0.07263389912025       -1.24206176817617
C           49.83240216450846        0.17655481376072       -2.50737357974987
C           48.87384147716593        0.02888811088479       -3.45409445710920
C           47.63800332777139       -0.16620509740193       -2.75958384998907
N           47.83020823494893       -0.09326762076755       -1.39975262310035
C           46.45410015471405       -0.52649944482801       -3.38236092533380
C           46.45397133406232       -0.73450160072527       -4.85677155951592
C           46.10700528796381        0.31888886472854       -5.70748253815428
C           45.73059101387761        1.65815856608325       -5.13213881514347
C           46.11203514528410        0.11506974373179       -7.08243520293918
C           46.45454865005092       -1.12085479859956       -7.62070018749370
C           46.47544453375512       -1.32528212351543       -9.11134054932297
C           46.79838864481684       -2.16156650900617       -6.76368317791190
C           46.80215306388993       -1.98063657102018       -5.38579459830044
C           47.17764536679755       -3.11016935923111       -4.46421077229233
C           45.27073383154229       -0.69277171318696       -2.68264113543984
C           44.03312934063050       -1.07170399604144       -3.29340927503196
C           43.07433895733423       -0.93474588307361       -2.34565614015020
C           43.73144264812952       -0.47570051106917       -1.16254075955906
N           45.08060293908048       -0.38245731122857       -1.35571411254286
H           42.00365101064811        0.99371941806201        2.39296475622584
H           43.91063066301087        1.24535957068144        4.29542812723923
H           47.99721459492379        2.80984483501990        3.91801390623391
H           47.22679652895592        3.93291566281614        5.05132231168076
H           46.28143019606618        3.18384262707895        3.75165377505229
H           46.96432697310511        2.99081079650673        7.18546955781281
H           47.43772081058052        0.96232329439706        9.48029432323333
H           45.75516394255200        0.42939231671157        9.57231033339245
H           46.13472627979612        2.14960099505161        9.36123030831726
H           45.88476371502657       -1.12046041644142        7.68525059970925
H           44.89590997551301       -1.74092308783296        4.46017090092641
H           46.61329974721706       -2.14007677691565        4.40939625458239
H           45.65234997188347       -2.55378777801818        5.84093192735161
H           48.99407807028859       -0.04808651727702        4.48274149561668
H           50.91104975840761       -0.25555675767347        2.58486543080846
H           50.89155910256438        0.33077066833646       -2.63651480867891
H           48.97838475991880        0.03767753080411       -4.52697587643440
H           44.81508873317252        1.57217654480629       -4.54339772764396
H           45.56801526840228        2.38958305140740       -5.92315873554926
H           46.51870339839621        2.02401511599333       -4.47168312873131
H           45.84327054806604        0.93274482932241       -7.74315875357304
H           46.19515392041448       -2.34759461763096       -9.36658548395264
H           47.48132268589556       -1.14351699262677       -9.49704458532501
H           45.79164453129319       -0.63689352736341       -9.60828099857552
H           47.06641219582436       -3.12918287751710       -7.17511205368613
H           47.34704690430200       -4.02935507999086       -5.02412049104183
H           46.38611312725214       -3.28448011051304       -3.73328774210682
H           48.08906332699329       -2.86267813043911       -3.91631728927517
H           43.92763895122100       -1.38424271391642       -4.31969576787246
H           42.01358729304851       -1.10928298134203       -2.42716423913401
