254
 energy: -438.501877255937 gnorm: 0.000791325836 xtb: 6.5.1 (b24c23e)
Co          34.20297006606197        0.37951386461574        0.30279745099528
C           30.83478649167417        0.23854170403380        0.25118634025193
C           31.53825902299113       -0.92692032375687        0.46750506463295
C           30.92604021661453       -2.19994812000921        0.69864334815844
C           31.91568500993133       -3.12236540751537        0.64111194088941
C           33.13093610764030       -2.41147127836273        0.36862032182019
N           32.89770383423382       -1.06059805484991        0.33232507464231
C           34.34544339356637       -3.01861333117607        0.07584654315191
C           34.40356088564226       -4.49285584135621       -0.04647530114867
C           33.65245007568738       -5.15190234210311       -0.94393541734106
C           33.67652581594862       -6.65023580340588       -1.08309611577571
N           34.81280531138374       -7.23502279448332       -0.36908513366522
C           35.44067831323853       -6.56295431965652        0.64158309388036
C           35.30396909202496       -5.23534200417926        0.82040614926203
C           35.50721289162224       -2.27945965143391       -0.09378240263846
C           36.78255523865672       -2.84647341601364       -0.41448745353344
C           37.69544782148336       -1.85323933035782       -0.28719276457455
N           35.63111382456974       -0.93064456866503        0.15026056185982
C           36.97356828952876       -0.68032752412715        0.09254132421164
C           37.58626047905071        0.51520945880669        0.47586790423637
C           36.84459070505890        1.66369839168494        0.76023312625568
C           37.43083741291876        2.90489191439765        1.15658996874827
C           36.44100680256463        3.82968616726999        1.12207348480802
C           35.25320979753819        3.14908599591145        0.70212343075650
N           35.50169411127195        1.80557992057161        0.54372006776366
C           34.05569573075052        3.78350835059848        0.40246717038283
C           33.99886149340475        5.26236364168255        0.44229136764385
C           33.14760416168964        5.91331538399606        1.25191884003822
C           33.05862326933190        7.41488360423076        1.30205516814651
N           34.19789256582062        8.04042567637556        0.62855290600896
C           34.93722079724527        7.36131119932952       -0.29859791389812
C           34.90303328539147        6.01963339693287       -0.40775850102158
C           32.91047300317879        3.06645718758679        0.08265201368363
C           31.65010134540161        3.66203117716943       -0.25454377233758
C           30.73711239997925        2.66219967062216       -0.27485829661052
C           31.44402133335409        1.45486210196691        0.02653079682159
N           32.78453034912681        1.70361184227652        0.18064983701454
H           29.75202233246269        0.19402814410063        0.24258726980897
H           29.87161999781872       -2.34931256406235        0.86959991441867
H           31.84313076655397       -4.19016577143373        0.77052596516998
H           32.97689467313642       -4.63151339867342       -1.61276577455170
H           33.75654320976309       -6.93157851636160       -2.14253799476286
H           32.73223385507554       -7.08272872267123       -0.70363926979884
H           34.79610291239136       -8.24214551170454       -0.30880569406242
H           36.11292033027510       -7.16784928475185        1.24159676690323
H           35.84225665579961       -4.71610002840774        1.60044626309296
H           36.94771648892501       -3.87511464825748       -0.69125797838142
H           38.76342727016636       -1.89552551262177       -0.42918512354640
H           38.47008819064011        3.03689383394097        1.41177648517812
H           36.49879254531771        4.88061448270214        1.35504295086676
H           32.46853417858907        5.38316671821219        1.90939586975390
H           33.04661437152362        7.75947814667430        2.34561890019648
H           32.11485303244807        7.75581931883884        0.83752915590059
H           34.11639617177331        9.03894049719585        0.50797608001358
H           35.60648075022631        7.97939205634030       -0.88841114796402
H           35.52855840243330        5.49839230197033       -1.11829860934568
H           31.49604454672806        4.71200071405218       -0.44423163666068
H           29.67813995637144        2.71759605608684       -0.47201956170167
Co          89.59805021877533        0.22092782571758        0.09677616613943
C           92.91973416989786        0.61969345509818       -0.28617597572591
C           92.19374243282122        1.66605125286840        0.24453671022374
C           92.77072597557104        2.88757364605420        0.71633342607276
C           91.74131244413161        3.68912319762429        1.07978915580811
C           90.53401440514064        2.97343133231279        0.78416835258332
N           90.82688419737887        1.70713011579195        0.34150733417563
C           89.26663168282238        3.53942828968355        0.77898288591840
C           89.09556591133371        4.96753354707336        1.12925237408566
C           89.72352899224943        5.94642689061049        0.45766297479703
C           89.56785022655590        7.40226234000210        0.80705408129923
N           88.43628341537628        7.61703705408452        1.71031865608975
C           87.93182903534769        6.60280204154609        2.47417646620475
C           88.19393248451024        5.30708555198439        2.21820985524863
C           88.14550105702034        2.81030679356254        0.40430732063177
C           86.84896421527141        3.38124670464809        0.19807372726811
C           86.00657317772608        2.35453194997250       -0.07098973785659
N           88.10345581791468        1.44895655327175        0.22214111862224
C           86.78632724975627        1.15846586054543       -0.00741597757856
C           86.22972890612732       -0.12216518089032        0.03046206457952
C           87.02055869429864       -1.26110548044864        0.20176950664867
C           86.49184433045185       -2.56853895743884        0.42816657899732
C           87.54785966127859       -3.41789106256319        0.44099705098940
C           88.71570742418446       -2.62960045710153        0.18307486613047
N           88.38278958630615       -1.29579678799306        0.10535253709053
C           89.96564873596859       -3.15611360165720       -0.10762265505131
C           90.15134784484145       -4.62486895451923       -0.13002830320862
C           91.05478224777978       -5.22302355816136        0.66352905048132
C           91.28401244900829       -6.71034795147058        0.66123050686274
N           90.22031788838359       -7.41384228806086       -0.05784407825267
C           89.43429312171754       -6.77139280667149       -0.97279589162112
C           89.33756366608721       -5.42938595206084       -1.02655087709529
C           91.04512444780926       -2.33965694784497       -0.42336107293425
C           92.30654466935388       -2.81898016078435       -0.90828307679491
C           93.12396760853150       -1.74391016999242       -1.00717750993218
C           92.36728939404757       -0.61174823704898       -0.56499826560893
N           91.07686411127112       -0.97838212607109       -0.27130583821720
H           93.98427347267310        0.75440771623895       -0.43807220447266
H           93.83012911147512        3.08363833941040        0.76772884167561
H           91.78332662810995        4.68107326201691        1.49976954186374
H           90.38564607931733        5.73448463106253       -0.37362545615373
H           89.39629134802844        7.99398651812824       -0.10311960477236
H           90.49595087910058        7.78396272310032        1.27139594321047
H           88.36948919394267        8.55156875543375        2.08476888108724
H           87.24789073674378        6.91818859910459        3.25556487254127
H           87.74819007808155        4.51743054257586        2.80610425756686
H           86.62535162522013        4.43462814623579        0.24780133236436
H           84.94788130771532        2.38584610423683       -0.27245527814568
H           85.44529145468783       -2.78976058141606        0.56423763893335
H           87.54542707938027       -4.48484338375252        0.59454297664123
H           91.67736165018603       -4.65517571321109        1.34509228191974
H           91.31037650283118       -7.09156071141656        1.69179896926198
H           92.26359342003695       -6.94376939743838        0.20450950017881
H           90.40050173608155       -8.39387495268805       -0.21708628700941
H           88.84007090767642       -7.42630605658348       -1.60193655420287
H           88.67995776396259       -4.94234277152534       -1.73234182099695
H           92.52197955792110       -3.84769564812377       -1.14840038354940
H           94.15355664895004       -1.70445418313842       -1.32612905681874
C           38.98687843419265        0.56616655879533        0.55573424177941
C           40.20907386825950        0.60144355064188        0.62017269464636
C           41.55026901182371        0.64222539624454        0.67641392262758
C           42.78003309098373        0.67169340397488        0.71475850197877
C           44.11731044618126        0.70576120586603        0.74753807361759
C           45.34767932277944        0.73322615470738        0.76710310179658
C           46.68984895509227        0.76786718762612        0.77746126527484
C           47.91417891673032        0.79817261837852        0.77765160382092
C           57.49597952645914        0.99005852996155        0.60448470057306
C           58.72104940482010        0.99302732680218        0.58357947799748
C           60.06286093748707        0.99092279056337        0.56676046779012
C           61.29430070409862        0.98120894380177        0.55541680070774
C           62.63141834371100        0.97146777549731        0.54988538935717
C           63.86283072537046        0.95991794684984        0.54894446443014
C           65.20454455320882        0.94985186530927        0.56083070465048
C           66.42966172048793        0.94211129106078        0.58359049414709
C           75.92963453819641        0.04031405393592        0.18679801721981
C           77.14011997264399       -0.12181922998693        0.09529703744250
C           78.47400922473381       -0.25643829367603        0.01749065713640
C           79.70126994251657       -0.33455375297813       -0.03362644070146
C           81.03852261625241       -0.37660521258156       -0.06822766861470
C           82.26918299954058       -0.37675082397557       -0.07783868259943
C           83.61152016057424       -0.33012513996406       -0.06232727797138
C           84.83297792395099       -0.25285963437596       -0.02761162793212
Co          52.70520178976481        0.91464720987406        0.70700765859265
C           49.31628462596635        0.83428159545752        0.76387067570431
C           49.96357739833007        1.82498123199936        0.01890238143774
C           49.28157573851817        2.85157909879339       -0.70261199359591
C           50.21026630625743        3.46290859247096       -1.47879238069460
C           51.45406789390187        2.79680886121767       -1.23575896016290
N           51.30144067568734        1.84099443637752       -0.25886038290474
C           52.60775078960170        2.98708294644311       -1.98462852667293
C           52.55947970314714        3.87555419143769       -3.16674115264037
C           51.70590056101256        3.64285461632382       -4.17804784862301
C           51.66330739092665        4.49224043221694       -5.41881774320327
N           52.39714429944242        5.74484790554087       -5.23269262974743
C           53.34926718543905        5.87677368612948       -4.26183146688100
C           53.45649260101721        5.01721735918500       -3.23076814752361
C           53.80261290312239        2.35857072540058       -1.65994282016364
C           55.01032264168639        2.47024231401272       -2.42036803421319
C           55.99372133385897        1.90448031857762       -1.67781608301093
N           54.03226691589270        1.65938338007948       -0.49815562066925
C           55.38076811265481        1.43954691364339       -0.47431645971534
C           56.09470346772834        0.97462336906878        0.63401080336857
C           55.44381913771487        0.48783187707789        1.77257194321214
C           56.12201843955067        0.05011063717937        2.95058079597284
C           55.19256052334693       -0.55420792502555        3.73151733118959
C           53.95239088256353       -0.49440980960547        3.01862446934837
N           54.10747799691851        0.21477101386432        1.85010490157408
C           52.80102183825061       -1.17985884008740        3.38242340762256
C           52.84462235918360       -2.10222828240084        4.53821624390213
C           53.71079574837943       -3.12823590851846        4.58232222175930
C           53.78392257473600       -4.08254563539408        5.74341277487452
N           52.61939642105539       -3.94666469711888        6.62008145444742
C           51.86600007020207       -2.80697774356638        6.63074904261287
C           51.91272012416393       -1.90085172187102        5.63572563889240
C           51.60910611901011       -1.02894758736158        2.68497521580090
C           50.40452349494515       -1.74659667606283        2.97411189956763
C           49.42250016549657       -1.17738889866168        2.23283283023074
C           50.03269449046505       -0.12274649159228        1.48717786886011
N           51.37966295372276       -0.08049127958842        1.71668846973904
H           48.22663755214433        3.05940372063206       -0.62234902998684
H           50.07527312604859        4.28800958053475       -2.15909363919590
H           51.04830317573693        2.78134429054407       -4.17983694218456
H           52.08145070224055        3.93516733229134       -6.27771489108663
H           50.62241843421037        4.73893144682217       -5.67170985533840
H           52.51968657177700        6.28874032883867       -6.07368945835058
H           53.96238966889086        6.76837989280702       -4.34517038258937
H           54.17089425044500        5.18109501083321       -2.43668275272177
H           55.08636118913543        2.92862161277487       -3.39319085119560
H           57.04351639916332        1.81190214370031       -1.90568855933245
H           57.17472622363589        0.18781655854442        3.13863393326479
H           55.32560250873735       -1.00292898360660        4.70249251050004
H           54.41009484907391       -3.31795019545556        3.77642020759554
H           54.71080937277428       -3.90900336633405        6.32073447214857
H           53.81984911057173       -5.11927433087298        5.38032101703049
H           52.68326716363610       -4.46334715794174        7.48437920211627
H           51.17604900006533       -2.72483194170047        7.46445107235946
H           51.27783084058571       -1.02642167995355        5.64274664597629
H           50.32876955351188       -2.57248377552610        3.66268450220825
H           48.37484287899132       -1.42907193555883        2.19237924208553
Co          71.21835479501871        0.81228469506240        0.61269733722786
C           67.83095608232780        0.93039520556186        0.61615008082901
C           68.53977929096676        1.84126340419304       -0.17606596142187
C           67.92612053611691        2.89343406234896       -0.92120607304466
C           68.91645613768314        3.50747939936045       -1.61470065344547
C           70.12451867883716        2.79446487524874       -1.32631946882661
N           69.88774744585319        1.81824698659799       -0.38367622867468
C           71.30915401111353        2.93795096406963       -2.03306590709115
C           71.39056087762656        3.91203018391324       -3.14376130641683
C           70.56117740966634        3.85705605937530       -4.19904604619835
C           70.66520703444601        4.80274902259399       -5.36443488198647
N           71.52430108907846        5.94618163204723       -5.05057636768012
C           72.44974519361672        5.88535420594026       -4.04656876863265
C           72.41533148606597        4.94162284050560       -3.08705077575970
C           72.42243891704449        2.14921076193236       -1.76421615784291
C           73.59524217989996        2.10616077077008       -2.58332615379985
C           74.48609824182601        1.30398673672504       -1.94994874726957
N           72.57767695667719        1.34559938284285       -0.66240773088252
C           73.86149846759221        0.87848510260881       -0.73741412892064
C           74.55132757511117        0.26976446094329        0.31374573259245
C           73.92338246252645       -0.02148285404842        1.52963319042985
C           74.61899014333768       -0.44837061759256        2.70113746995563
C           73.67611884799851       -0.70623068756165        3.64086608744186
C           72.40471346014120       -0.47813773861734        3.02276832845968
N           72.57618636053148        0.01011951991313        1.74693498887696
C           71.18712141513356       -0.86552093339570        3.56427686412116
C           71.15099465851475       -1.53737095134225        4.88231481780891
C           71.82017992461157       -2.67773891432096        5.11808547440810
C           71.80185242436113       -3.37089748783960        6.45382099327607
N           70.74695582473245       -2.83921427645052        7.31856569248010
C           70.20293945309139       -1.60462518032701        7.10294937870644
C           70.33977963126551       -0.94832702344976        5.93527707492529
C           69.99096300856523       -0.68592488469825        2.87977382169520
C           68.73673149324269       -1.23805665671139        3.29272528505202
C           67.80244497807404       -0.78210856051697        2.42282195593881
C           68.48572349080708        0.06589631202032        1.49750971753095
N           69.83073691191007        0.07124106859431        1.74541576351211
H           66.87411845925115        3.12865745729243       -0.89651457434846
H           68.84273296195650        4.35738378798503       -2.27347437034304
H           69.81742762843409        3.07510551169821       -4.29884129831292
H           71.05529043154735        4.27174587156141       -6.25265953841121
H           69.66978706384457        5.18566776076934       -5.63009044991614
H           71.74567794355124        6.53220662504938       -5.84173649317991
H           73.16644507247283        6.70033303624240       -4.03945634148142
H           73.11617902754323        4.95161176534989       -2.26449502623491
H           73.70844152189174        2.61973965575968       -3.52448243503813
H           75.48604842080537        1.03561349531953       -2.25096657644558
H           75.69131632690021       -0.52529352597941        2.78332081705651
H           73.81999268101147       -1.03101001845501        4.65844108235251
H           72.41682004412924       -3.15790236642530        4.35140381099383
H           72.78363073622383       -3.26367497605041        6.95088074909361
H           71.62466726540760       -4.44737078346911        6.31980453324745
H           70.78410216417269       -3.16378628592387        8.27321384490656
H           69.59363628361145       -1.22725010791652        7.91789894649893
H           69.86241858469833        0.00671631343135        5.76849538785098
H           68.60123890903816       -1.89510381415671        4.13654596363938
H           66.74117052870243       -0.97193507505735        2.41100817619354
