189
 energy: -359.527294622779 gnorm: 0.000586589161 xtb: 6.5.1 (b24c23e)
Co          34.34910837821595        0.01593701191064       -0.21347097539180
C           31.05561916550013       -0.23882218603814        0.43124178284266
C           31.57145980088368        1.01012465175939        0.15242891920179
C           30.78910594758191        2.20445069164672        0.05463943091417
C           31.66045626978918        3.22826245245856       -0.10699534385991
C           32.97736477755125        2.66131144519381       -0.06558574985759
N           32.90590163263822        1.29357760986955        0.01445611767203
C           34.14811311807006        3.39782153954581        0.05968133039787
C           34.07396215096160        4.87416517305523        0.14214882736620
C           33.31980460041278        5.49571368480327        1.13361444111857
C           33.25542166260002        6.88651682994308        1.20579374437925
C           32.43208641988990        7.48815829560132        2.28504057513088
O           32.44361900463361        8.82887345024464        2.28409839588743
O           31.80369517779896        6.85426485592028        3.09364825825972
C           33.94875770261793        7.66785009855975        0.28154123757786
C           34.70311597309838        7.05156117828790       -0.70465497945402
C           34.76872682490590        5.66731428113290       -0.77473313133445
C           35.38991987470957        2.78520872614239        0.16025590314724
C           36.60868962368906        3.47265537095223        0.46256910406724
C           37.60777023900413        2.56349883517780        0.35239158999687
N           35.63932294710385        1.45553907345840       -0.08226425125857
C           36.99982169310080        1.32815790935648       -0.02903251177778
C           37.71645519090281        0.22320911663047       -0.49815683216898
C           37.06919913093559       -0.93454199371856       -0.94375994507771
C           37.73464269572208       -2.02930393380443       -1.57532183857761
C           36.81303325544738       -3.01007745414173       -1.73201796689284
C           35.59377202791921       -2.52443549984910       -1.15802602294556
N           35.74856087515422       -1.21900811547278       -0.74640019939157
C           34.48284078453043       -3.31107874421721       -0.89590390015908
C           34.51461328697464       -4.75333495609475       -1.23019940645367
C           35.49145824127953       -5.59184791535260       -0.68816941991492
C           35.51467035364995       -6.94389295562284       -1.00070213842841
C           34.56554906735364       -7.47539713855539       -1.85767586312381
C           33.58235098075770       -6.64841705234734       -2.40337611542263
C           32.58102984775707       -7.25629041949634       -3.31532629505909
O           31.67489005379410       -6.38226131980827       -3.77726393037479
O           32.56205836438983       -8.42020834545927       -3.62445072957943
C           33.55693143690925       -5.29172970965961       -2.08752867740328
C           33.34459431490990       -2.79099808015209       -0.28905950376813
C           32.22775794641184       -3.57650975742562        0.14810574386752
C           31.27575052299309       -2.70748728523236        0.56315962715669
C           31.80696335954887       -1.39255435729887        0.36671344555683
N           33.09948442000645       -1.45850123644248       -0.09329343616923
H           30.00130819671594       -0.32143726192456        0.66726702956613
H           29.71217845133625        2.23523797911487        0.09996345093265
H           31.44375382105772        4.27684621673136       -0.23061152594491
H           32.78872217516832        4.90570434907799        1.87253337987162
H           31.88448375710969        9.14172485968415        3.01382470609208
H           33.89558935057534        8.74831165414142        0.33806599670462
H           35.24394080799721        7.65255549377901       -1.42695746332006
H           35.35135796888299        5.19152664114138       -1.55569369039782
H           36.67914869335908        4.51383990166492        0.73245150920367
H           38.66647981760882        2.70890797400769        0.49236923759249
H           38.77418021375113       -2.03433200488431       -1.85901085785750
H           36.94086001377346       -3.98060574028207       -2.18283768447452
H           36.22517309299128       -5.18200080002283       -0.00322859971288
H           36.27673835027687       -7.58298298222260       -0.56962600433131
H           34.56982980800638       -8.52911119165392       -2.11272295775712
H           31.06092460138819       -6.85514308298141       -4.36228860084678
H           32.79985241508021       -4.64919644905426       -2.52137028598873
H           32.19282590131570       -4.65390131695957        0.13888183375327
H           30.29114939972144       -2.91729585001900        0.94960058459415
Co          55.86611709748718        0.13238585592447       -0.10815703720006
C           59.17265929546300       -0.03461945469339        0.49315703430403
C           58.56441811395371       -1.10868355401828       -0.12313673734370
C           59.25412389127147       -2.27601264441334       -0.58170313097002
C           58.30623093424980       -3.15513373801654       -0.98442992838998
C           57.03593958270633       -2.53667881076743       -0.73647027965429
N           57.21023810812983       -1.25293362659818       -0.28512713145327
C           55.81592150466196       -3.19957155574485       -0.77111949973818
C           55.78188640811264       -4.64618381187576       -1.08289087277195
C           56.51012842488031       -5.55634942281638       -0.32158704485223
C           56.47143555460568       -6.91792727626664       -0.61868364943055
C           57.26934929914185       -7.83736076914204        0.23151083464327
O           57.15788427075471       -9.12600495377012       -0.12168507112968
O           57.95882242368116       -7.48389018969790        1.15350753136905
C           55.70076249892732       -7.37955336943372       -1.68562483370980
C           54.97283363040579       -6.47592052641832       -2.44390281057170
C           55.00928471659572       -5.12125317939928       -2.14597871574032
C           54.62400535423937       -2.55012095966548       -0.47859006989783
C           53.35772888922239       -3.20277106704977       -0.33785230179956
C           52.42827091988445       -2.22575238442768       -0.20030484544229
N           54.47352000589049       -1.18829143660799       -0.36898803984197
C           53.12522323360441       -0.98107385474509       -0.27186272114171
C           52.49589502971979        0.25836513611806       -0.42342550771266
C           53.23360226125615        1.44304140062183       -0.52688066236009
C           52.66641811133459        2.71569162077283       -0.84005916554690
C           53.65378527746937        3.63213422815116       -0.68989398046355
C           54.81700060218741        2.91657694505954       -0.25852732664788
N           54.56378559605248        1.56314768360421       -0.24248046252112
C           55.96865520081312        3.51084998296415        0.23543516286222
C           56.03180370729898        4.98489565726451        0.35745803743602
C           55.08592096812740        5.67840089494223        1.11626569995250
C           55.14990079700397        7.05967441564162        1.23531175350963
C           56.15643216720191        7.76606039046979        0.59841635876366
C           57.10864023338486        7.08459840936376       -0.16132554385047
C           58.17387339267928        7.87726723135217       -0.82552927483745
O           59.04266815720037        7.13122518171196       -1.52324885944749
O           58.27047205765622        9.07579371224264       -0.75792549298167
C           57.04615715031213        5.69785045429725       -0.27903244018967
C           57.06032842502282        2.75599544354249        0.65024260441607
C           58.22649954337145        3.29389450348421        1.28787935143568
C           59.12063597234213        2.28173265989864        1.38800932195043
C           58.50266997889155        1.12895050901721        0.80580302430294
N           57.21599516123175        1.41495723562182        0.42054412034403
H           60.23273141016981       -0.09492086085214        0.70921278761970
H           60.32647709664519       -2.38900703623581       -0.58893134880947
H           58.44176775115321       -4.13969564180593       -1.40168280856385
H           57.10080979625744       -5.21915619698296        0.52314265753183
H           57.70503991693010       -9.65833119266182        0.47856479243532
H           55.67388647891793       -8.43762013803606       -1.91627307271512
H           54.37250529978342       -6.82758715534740       -3.27537794755109
H           54.44649455952396       -4.41861653383849       -2.75037094783339
H           53.21048731935031       -4.27057418154131       -0.33499361259071
H           51.36292564591803       -2.32553239872199       -0.07266583876762
H           51.64429892000747        2.87336038604068       -1.14324201954141
H           53.60669039454033        4.69715978757954       -0.84875758128656
H           54.30709647389364        5.12628767619271        1.63031725333537
H           54.41121252358086        7.58355738690365        1.83114268970868
H           56.22100466523576        8.84512046666335        0.68099276962770
H           59.70233432847555        7.72086609019887       -1.92333335710197
H           57.77906185646168        5.17245019782775       -0.87986069494644
H           58.33298864296643        4.31560860762213        1.61471663358290
H           60.11786243521664        2.29935633866001        1.79789760009549
C           39.11662417784213        0.29774207922660       -0.58079007638969
C           40.33038076978112        0.36603805869877       -0.65931280028702
C           49.88107018848869        0.35757667834560       -0.60803693229079
C           51.09539180827947        0.31159065875604       -0.51994537053474
Co          45.10593084640412        0.48371421963993       -0.88454479673658
C           41.72864440882172        0.43141114124915       -0.76285509141944
C           42.39010247320617       -0.46403744595215       -1.61305318250045
C           41.73046838049988       -1.36105518267325       -2.50692515926416
C           42.68970420807487       -2.15532474702594       -3.04300061732332
C           43.92935660094344       -1.76234478022599       -2.44372171410236
N           43.73996412665421       -0.66104760445443       -1.63896259724908
C           45.10399337261627       -2.49901187717474       -2.49733509422156
C           45.12298045595161       -3.78919671489157       -3.22040047740380
C           44.21598301914453       -4.79758419470856       -2.90538635545190
C           44.24111261332047       -6.01107200263184       -3.59114017511715
C           43.24375277705687       -7.04402461735427       -3.21205328629014
O           43.36232937589114       -8.18322535624598       -3.90813051950341
O           42.39900645211422       -6.89456199390003       -2.36662643128756
C           45.17944790955723       -6.22477536163880       -4.60072556150148
C           46.08583583486087       -5.22388865306273       -4.91428385620173
C           46.06142556281578       -4.01684108620328       -4.23075882200035
C           46.26038871240113       -2.07953956045069       -1.84808619006113
C           47.44954445124086       -2.86232921250989       -1.71010621501264
C           48.38953969987067       -2.05045992107519       -1.16480647981625
N           46.45696047074730       -0.81947748054477       -1.34116124290323
C           47.77596844310896       -0.77402768494483       -0.98255649894468
C           48.48260636811936        0.40589525586342       -0.72328188186106
C           47.82880052385992        1.64191562393908       -0.63858995821103
C           48.49750028336129        2.89956005891481       -0.53926543516187
C           47.54182151157042        3.83581143021586       -0.31909286150449
C           46.29377092802167        3.13813389206153       -0.24452447093096
N           46.47780284909568        1.80336238933576       -0.52857171307244
C           45.11267123915232        3.68177587992055        0.24055265588678
C           45.09442569786881        5.08446674659797        0.71179512778309
C           44.19227978444277        5.99791543599761        0.16064413570651
C           44.16742086766816        7.31602084842953        0.59382285542128
C           45.03667475099823        7.73739104972432        1.58629514127019
C           45.93697323743913        6.83232278359695        2.15045065793327
C           46.84736383707089        7.32052406380802        3.21719634161544
O           47.67461966326255        6.37711795811512        3.68972599749236
O           46.86102384471074        8.45055715205203        3.63301071043477
C           45.96538604701010        5.50996034538717        1.71288289638517
C           43.94699038645211        2.93019720141283        0.34098161694150
C           42.75041791228254        3.36157267422443        0.99596626912483
C           41.80928607618223        2.41540266294189        0.75198409774048
C           42.42837554291050        1.42184304775519       -0.06580226612708
N           43.75179190736204        1.70971678019341       -0.25512889277198
H           40.67043632136879       -1.36491499061516       -2.70090387953600
H           42.57456297499829       -2.94400922982800       -3.76830457114454
H           43.49239547754206       -4.65844992033999       -2.10962204282734
H           42.67898075743594       -8.80344949070741       -3.60593286263826
H           45.19609871082920       -7.16767846570145       -5.13369157384915
H           46.81702453607396       -5.38251046272743       -5.69883136282577
H           46.76445513251689       -3.23322980308714       -4.49029797914051
H           47.54283033745478       -3.89951517190728       -1.98827494451367
H           49.41454148944329       -2.27956529806901       -0.92441331166864
H           49.56246093435502        3.03686774668801       -0.62969055271951
H           47.66427024867325        4.90014880191104       -0.20193754313647
H           43.51836326851912        5.67183631904846       -0.62370232694132
H           43.46615692269248        8.01493807718378        0.15238676926398
H           45.03005766859275        8.76318689566284        1.93716436679252
H           48.22915015370815        6.77207076704991        4.38216403625817
H           46.65255893338674        4.80550661678238        2.16630599203716
H           42.65551789339244        4.26574445754107        1.57510191750123
H           40.78178139712127        2.38998772946639        1.07646066782556
