268
 energy: -495.555310329647 gnorm: 0.000357967405 xtb: 6.5.1 (b24c23e)
C           46.26351839741611       -0.08713418255384        0.07517096612366
C           46.88091994701269       -1.31911568029073       -0.09765138744689
C           46.23823907578524       -2.58272129076181       -0.22389763292924
C           47.20575966923685       -3.53219970025213       -0.39468501927324
C           48.47082865526239       -2.87761736772853       -0.38722613859110
N           48.22451192701442       -1.54822766874277       -0.19458065329231
C           49.73726360298435       -3.45812842251388       -0.52243868593820
C           50.94874053556394       -2.76519310292022       -0.45486639749190
C           52.24862691626734       -3.38173513675546       -0.65262442470235
C           53.16289267578490       -2.40107561515340       -0.50489452208616
N           51.09450284259498       -1.43292321906017       -0.21752754659576
C           52.42014366314033       -1.18586549258159       -0.23095053710320
C           53.04911486551438        0.05680418836444       -0.01607527386747
C           52.40663048163686        1.29069635617706        0.19652375130635
C           53.04425736777388        2.53813788131749        0.42980441815802
C           52.07205903736693        3.48824075232138        0.57538411818297
C           50.80923433375757        2.84984718846662        0.42725592959758
C           49.54300989636033        3.43817430545571        0.51719336128784
C           49.50230512289431        4.90326926551784        0.73288367671495
C           50.07844021281065        5.77272668034243       -0.19764146453324
C           50.03757748155523        7.13973965482379        0.00508196907976
C           49.42469500833065        7.66416146281751        1.14473189718360
C           49.40888763970395        9.13614430626455        1.31899996344124
O           48.79399857474495        9.53743740992975        2.44193798425472
O           49.89434093149427        9.91837137179458        0.54176558743990
C           48.85040340498259        6.80076571532042        2.07830922879746
C           48.88820665444604        5.43315880984043        1.87092278194828
C           48.33005547695457        2.74705682766196        0.42127790309496
C           47.02066016411501        3.37994164243700        0.46506004637311
C           46.11380640894014        2.38972791504659        0.34560394042366
C           46.86770294996718        1.15507342064922        0.21561135601862
N           48.19875441640860        1.40999976998648        0.25587085086217
N           51.06343234916612        1.52197922865359        0.20842586591872
C           49.77655126948518       -4.92113922771077       -0.75639210190081
C           49.16525936714727       -5.47214707245345       -1.88570546403540
C           49.20099627049334       -6.83719912943922       -2.11031159638916
C           49.84645981524488       -7.67673261626030       -1.20197083570098
C           49.90975445195880       -9.14513553740915       -1.39515800467436
O           49.29537344015193       -9.56681324717167       -2.51098888613101
O           50.45323492774540       -9.90827260057660       -0.63786585636114
C           50.45618071608028       -7.13113505295083       -0.07058778488651
C           50.42345541471236       -5.76652430091729        0.14917970312872
H           45.17857613565722       -0.10661475612984        0.09746537189405
H           45.17126249281974       -2.73276927784213       -0.18196516139010
H           47.06226117789731       -4.59464707312409       -0.50649727361461
H           48.94478264554128       -0.83666794305643       -0.13030468563540
H           52.41678393839363       -4.42040950588656       -0.88643634136604
H           54.23652993254425       -2.46523214309543       -0.57997410347200
H           54.11165420125943        2.67934147012747        0.48332553022917
H           52.21391834669658        4.53702802077389        0.77883574917868
H           50.54180006811980        5.36919821257138       -1.09085242277012
H           50.47743532733826        7.81977761839155       -0.71617549770405
H           48.82645969954503       10.50709770033341        2.48047839117634
H           48.37727775524059        7.20304199218710        2.96627100689448
H           48.45459555545555        4.76214374882599        2.60375966598744
H           46.84431910739904        4.43925856571830        0.56000985240716
H           45.03730764202564        2.45747410556836        0.33303443721020
H           50.34504765384786        0.81620149160041        0.08422501863615
H           48.67616391523971       -4.81908642432285       -2.59978204060416
H           48.73006538258800       -7.25550993124596       -2.99199538330433
H           49.38278067026135      -10.53241953953790       -2.56358255438446
H           50.95239541076660       -7.79309852376418        0.63059173065394
H           50.88598214063045       -5.34653892673666        1.03502637424383
C          101.07643131422273        0.09354957869651        0.10569874524422
C          100.45148552380660        1.26902374396161        0.50131721058946
C          101.08615682714463        2.45986891599191        0.95389806333549
C          100.11276857525850        3.38092481327876        1.22028535367801
C           98.85199504724793        2.78542758171467        0.92913083074487
N           99.10657992961396        1.51015994059693        0.51194850284769
C           97.58202216786115        3.36048019784488        1.05334997133513
C           96.37580116507682        2.70348325486021        0.79583133361617
C           95.07315927048235        3.34118808100895        0.86831154176025
C           94.16498350515648        2.38962731566128        0.56962568011165
N           96.23816457908150        1.39896617161559        0.43329861150683
C           94.91427461076653        1.17669734477595        0.30389389960357
C           94.29225576830821       -0.04524833991297       -0.02182337166974
C           94.94221919281995       -1.24970146646779       -0.34902185140826
C           94.31315083067400       -2.48333066899962       -0.66422743700815
C           95.29117837464216       -3.39360794609837       -0.95441727950491
C           96.54896797758930       -2.74004416643784       -0.83190498876355
C           97.81865130334366       -3.29440602701991       -1.02835364869185
C           97.86832821076030       -4.70356985071155       -1.48226151088031
C           97.27267489517492       -5.07901496742862       -2.68985069399943
C           97.32404312458313       -6.39341647848406       -3.11534448263051
C           97.96729948341155       -7.35964648575006       -2.33940535974288
C           97.99470359928115       -8.75557679215521       -2.83739097158843
O           98.64135216957219       -9.60364131420057       -2.02338717429894
O           97.49248085742799       -9.11912186715401       -3.87047418591561
C           98.56031434692646       -6.99135315389042       -1.13130765135372
C           98.51171673681120       -5.67426161498136       -0.70967276741101
C           99.02716940383860       -2.61793821496645       -0.82804643794585
C          100.33981364594815       -3.19057738942301       -1.08522063463671
C          101.24059886892216       -2.24163741448535       -0.76076210219170
C          100.47959398673609       -1.08565896876318       -0.32004085876756
N           99.15035977137335       -1.34482623538022       -0.38476910453184
N           96.28640843253039       -1.45043240004225       -0.45318238809717
C           97.53025847951790        4.77451442401916        1.49362516737777
C           98.14959958130824        5.77460499462657        0.73944720630158
C           98.10010769445257        7.09627075329309        1.14686312166563
C           97.43231739594732        7.43916864648651        2.32286774406436
C           97.35243998959506        8.83918364398384        2.80355089665094
O           97.97685414741376        9.71771801763734        2.00454408786937
O           96.78821574289479        9.18125279999238        3.81149888363514
C           96.81450266069639        6.44300473267617        3.08145106619952
C           96.86121686627715        5.12400187133759        2.67000438014192
H          102.16136012516105        0.10887819832333        0.13153072799153
H          102.15207876815644        2.58103799321525        1.06268130073112
H          100.24968934737859        4.38252038616693        1.59435192103653
H           98.39076353549882        0.84064940490356        0.25004541267221
H           94.89932853483323        4.37906989840644        1.10149422669098
H           93.09162058081013        2.47686768782339        0.51771175910411
H           93.24724176940438       -2.64462238060486       -0.66256139301502
H           95.15672797780479       -4.42958869153406       -1.21933995692428
H           96.78605655424376       -4.32811861105320       -3.30199654161329
H           96.86950272150492       -6.68951621092551       -4.05440574280977
H           98.61493481980177      -10.48994786787761       -2.41906194784718
H           99.05675521237373       -7.73865107238920       -0.52365796176672
H           98.96015988405502       -5.39166075938142        0.23602526944068
H          100.52223332822696       -4.17941861851897       -1.47402606419176
H          102.31709805611379       -2.28580164422084       -0.81364937729222
H           96.99998159392395       -0.75185720781416       -0.27304850781372
H           98.65549140049082        5.51155836956164       -0.18275349304607
H           98.57734159843594        7.86645827132700        0.55258074505594
H           97.87739844442984       10.60490897088940        2.38639082426036
H           96.30075408384276        6.72002883796531        3.99544284217022
H           96.39210834066917        4.35052773822965        3.26726895502326
C           58.25187388653713        0.12213207906288        0.02114158115481
C           57.02387682062062        0.11275333804070        0.00830551591870
C           55.67911713369235        0.09905586506534       -0.00263452109583
C           54.45566392569942        0.08048089011669       -0.01270296145525
C           59.59651454984188        0.12726280540203        0.03307873764518
C           60.82027030313422        0.12695402872678        0.04506657587236
C           74.28555406070610       -0.05608546176896       -0.06470596896595
C           73.05668154354461       -0.04932624402632       -0.06799006022836
C           71.71331774424728       -0.03587865923053       -0.06277783424196
C           70.48904263701792       -0.01397305150659       -0.05396750139115
C           75.62895235127981       -0.05728672760938       -0.05458036232737
C           76.85328788765393       -0.05685311452203       -0.03495925310432
C           90.31750967833200       -0.09892639286248       -0.00247012395836
C           89.08951384829597       -0.09628451673637        0.01318514003923
C           87.74490416004626       -0.08723389078133        0.02995931036819
C           86.52130219954570       -0.07024838557949        0.04546692625116
C           91.66233768567722       -0.09127140051029       -0.01440968291509
C           92.88581676226077       -0.07458798824708       -0.02388425279234
C           62.22596837061881        0.12255387164001        0.04796490505023
C           62.85611161213858        1.05989750958021       -0.79238593269470
C           62.21030229657113        1.99295115791880       -1.64437052028092
C           63.17767916083803        2.72613333710169       -2.27512554963923
C           64.44331756932665        2.26512687541872       -1.82027710427168
N           64.19821108992546        1.25269290808835       -0.93225929714906
C           65.70513229851187        2.72601508657112       -2.21599907025029
C           66.92946688447837        2.20826808201376       -1.79042166431265
C           68.21837392298025        2.74787623199635       -2.18584498091434
C           69.15318229410354        1.98744455568906       -1.57956925640478
N           67.10271764758987        1.15536127714848       -0.94470332657369
C           68.43400208686393        0.99376209264811       -0.80689442029967
C           69.08523469627875        0.01198560399980       -0.03278801018440
C           68.45338037541822       -0.94893206753024        0.78053360585352
C           69.09667069157273       -1.94921163848596        1.55432498336322
C           68.12980263040575       -2.65669881044689        2.21484047052664
C           66.86737597597060       -2.10282879511535        1.86775754056232
C           65.60707377580682       -2.52465854225715        2.30869489996559
C           65.59156962679039       -3.62901920039798        3.29841383892585
C           64.96917611389580       -4.84330180463644        2.99718285759349
C           64.95619654961479       -5.86938357976146        3.92394096217794
C           65.56084899877204       -5.69936426350071        5.17083893653480
C           65.51718639626367       -6.82691024164615        6.13271406342211
O           66.12311644958224       -6.56037046457161        7.29959789624111
O           64.99421438667395       -7.88941271259727        5.91188766149215
C           66.18266916389391       -4.48857101524800        5.47695665167551
C           66.19937286229026       -3.46494037797414        4.54580920944106
C           64.38293484930718       -1.99324193516056        1.89850213835051
C           63.09693564900270       -2.42879650765781        2.41398080439130
C           62.16149451312259       -1.69567767375936        1.77609324592717
C           62.87779253472301       -0.80480907594144        0.88456968457729
N           64.20867762699787       -0.99849578950215        0.98599950510139
N           67.11333558480885       -1.08083895115763        0.99046732580672
C           65.71998476025027        3.86204088182268       -3.16931550728840
C           65.15953132179800        5.09118873074147       -2.81151259975023
C           65.17380846879601        6.15007258525397       -3.70047299464966
C           65.74301742325422        5.99823512720299       -4.96620665368602
C           65.73033523273784        7.16158624165616       -5.88532749095198
O           66.30263135447385        6.91373707155492       -7.07296744006134
O           65.25761148852091        8.23623861301193       -5.61507762683900
C           66.30131119276565        4.77228081671432       -5.32937942823153
C           66.29093096014731        3.71540109551134       -4.43594634122251
H           61.14197547965968        2.08201950540275       -1.75739500724836
H           63.02958494710894        3.51018745532119       -2.99952000019957
H           64.91727625286761        0.71937520023743       -0.45504075579250
H           68.36609648520889        3.60067390689689       -2.82828184567275
H           70.22677896516329        2.07512426491786       -1.62640786946625
H           70.16285347694111       -2.10378505749344        1.59171328495718
H           68.27579809754793       -3.49506468353200        2.87612243810795
H           64.50954953023840       -4.98140615099756        2.02521975645074
H           64.47900193577682       -6.81597875652209        3.69516581285116
H           66.05010258389471       -7.34283833554050        7.86990710744765
H           66.65019957306085       -4.35072745683055        6.44470791311240
H           66.67092420750420       -2.51942656497721        4.78916937297532
H           62.95159170075647       -3.18364448764617        3.16949601365345
H           61.08958696571126       -1.72689067643690        1.88783290111649
H           66.39554414001570       -0.50815831162429        0.55913539299971
H           64.72837307102814        5.21508835242678       -1.82455434449788
H           64.74604000661755        7.10837072327226       -3.42700315675081
H           66.25474046309066        7.72004643508010       -7.61185598664430
H           66.74077032153750        4.64899857139273       -6.31212648864546
H           66.71347791694117        2.75909013920463       -4.72269866546010
C           78.25724694921195       -0.04753435382253       -0.01093666975908
C           78.89211605763583        0.88908221135567       -0.84980106187790
C           78.25172796189921        1.79946089412320       -1.72971358359906
C           79.22083955735678        2.55229419824533       -2.33447316352340
C           80.48182649545012        2.12689088376271       -1.83453691791310
N           80.23283338877418        1.11207768913830       -0.94986697403733
C           81.74378497011865        2.62355313466236       -2.18354948797990
C           82.96584134581379        2.13506770650084       -1.71709754709678
C           84.25370010570154        2.71074099898726       -2.06230603952646
C           85.18669154411914        1.95908643186218       -1.44251076094206
N           83.13648166885261        1.07424553436346       -0.88169912787409
C           84.46703778845041        0.93651313262042       -0.70914881755994
C           85.11577104013230       -0.05247361204559        0.05641253109238
C           84.48221796155896       -1.02919699569236        0.84785581964005
C           85.12367014592651       -2.02643778624619        1.62726536596459
C           84.15422693725871       -2.74198636849094        2.27513618512448
C           82.89187439459441       -2.19783863824070        1.91254422900580
C           81.62928699416450       -2.63001426065969        2.33743054661693
C           81.61179162340083       -3.72780803703357        3.33431591946987
C           81.00723161406529       -4.95123239213395        3.03388949902233
C           80.99455740675599       -5.97100515660730        3.96760589358914
C           81.58131671389818       -5.78539890530966        5.22086175307434
C           81.53829666630612       -6.90652635593176        6.19006719734690
O           82.12819018127385       -6.62572063711288        7.36189827501430
O           81.02957513844319       -7.97628502347960        5.97063227273425
C           82.18513741965042       -4.56531227742599        5.52628507757065
C           82.20188081796468       -3.54815589467526        4.58813851725797
C           80.40655384365677       -2.11469690883085        1.90424185938959
C           79.11694611482271       -2.56081378912545        2.40094847961341
C           78.18436065988101       -1.84523696610942        1.73918607904563
C           78.90584301279661       -0.95453925285112        0.85163682512534
N           80.23635921469615       -1.13023061529182        0.97911430469490
N           83.14039742253249       -1.17306748979191        1.03985574080158
C           81.76442784900037        3.76449580824232       -3.13028796924579
C           81.14843693346893        4.97306333083989       -2.79399460680754
C           81.17333268726465        6.03827781983083       -3.67511072234238
C           81.80963277495553        5.91385654318773       -4.91157479411001
C           81.80865815893343        7.08382480349488       -5.82227590076851
O           82.45310363684956        6.86488643270155       -6.97827646042135
O           81.28659722024958        8.14023588301141       -5.57145467932809
C           82.42245026381600        4.70813760243176       -5.25404791478022
C           82.40043682584405        3.64480852110671       -4.36863581412057
H           77.18579402234349        1.86120912062329       -1.87804249380917
H           79.07710365618368        3.32709685951608       -3.06963118474824
H           80.94912549815460        0.60095436717253       -0.44500274778899
H           84.40195106923062        3.57921875970689       -2.68322924504529
H           86.25894678495533        2.07122225046376       -1.45489935401193
H           86.19059976783488       -2.17173905080207        1.67852690122718
H           84.29838377090645       -3.57960302459796        2.93779420387276
H           80.56178607727166       -5.10150349753338        2.05713469421715
H           80.53155908404325       -6.92477330111846        3.73945591991305
H           82.05649595567104       -7.40496678935781        7.93672121087195
H           82.63874899077047       -4.41533707983190        6.49885555015672
H           82.65981782861054       -2.59571298766365        4.83050973231395
H           78.96722262316985       -3.31043798047637        3.16082530288964
H           77.11103467429578       -1.88903833863417        1.83159470232622
H           82.42372509027932       -0.60558005968484        0.59989260009471
H           80.66630098014801        5.07692397545140       -1.82854477675183
H           80.70309849995547        6.98094058161083       -3.41748989494588
H           82.40808107909173        7.67377896733946       -7.51353490943437
H           82.91391380838488        4.60580345375459       -6.21431468314862
H           82.86577075149003        2.70403325400671       -4.64009314015976
