132
 energy: -262.064770721031 gnorm: 0.000703431354 xtb: 6.5.1 (b24c23e)
Zn          16.99653334526407        0.02015041029170        0.05352322760404
C           13.58845068848306        0.11463040371325        0.09826885349890
C           14.21480854552572       -0.19880520741186        1.29835608962996
C           13.53668274752015       -0.50982400600848        2.52580641423600
C           14.49227841271122       -0.75612714547786        3.45599516683188
C           15.76757540381502       -0.58680209248772        2.80996146323357
N           15.56373913181671       -0.25959502760224        1.50181177941989
C           17.01770848313307       -0.75633897792832        3.41777773195677
C           17.02646025739884       -1.09472541150446        4.86206437480135
C           16.48130545877080       -0.21164847931775        5.79779965211153
C           16.49022628827417       -0.52197065039807        7.14763884484462
C           17.04461679215135       -1.72651492706724        7.54941273737615
S           17.06907395112968       -2.12072749589791        9.25694377388254
O           17.00026645068592       -0.93147067376127       10.05396343241755
O           15.63398670251228       -2.87803323616473        9.34633901234409
O           18.09485723293984       -3.07964223598417        9.54692942325850
C           17.59368883419789       -2.62259937755611        6.64642389320045
C           17.58311313371205       -2.29953132343476        5.29971628742398
C           18.25978852133672       -0.63501433877416        2.78392830114895
C           19.53813291431402       -0.75278570727705        3.43017082476551
C           20.48630437516799       -0.55692394627282        2.47887603034302
N           18.45574088730311       -0.35581937984478        1.45843045992276
C           19.79846508095190       -0.30959026937573        1.24572015743249
C           20.43176747229328       -0.06367311192029        0.01115170335150
C           19.78025595968780        0.20660681339046       -1.20887469575389
C           20.44817710924937        0.41626407287687       -2.45975855819766
C           19.48704828634917        0.65506977547261       -3.38804901965385
C           18.22124772883801        0.60348671739061       -2.70942741489091
N           18.43648463389195        0.31722936770274       -1.38836075002688
C           16.97176277765438        0.79127249363241       -3.31167247376824
C           16.96246841678499        1.12948675270932       -4.75612023572665
C           16.34435863391841        0.27979861043280       -5.67706606004777
C           16.33302394256929        0.59256322637256       -7.02642245199592
C           16.94397159494789        1.76417341553492       -7.44280008285678
S           16.92243831822462        2.17143292760885       -9.14829799776162
O           17.06839233603947        3.58490003758730       -9.34493362995713
O           18.32295571625730        1.47667148698762       -9.58949279388311
O           15.84572125547364        1.49274732272138       -9.80492935079918
C           17.56059739081584        2.62971150978306       -6.55369270412137
C           17.56853786736209        2.30510485315308       -5.20733225841185
C           15.73038823304031        0.69195434832949       -2.67143324448197
C           14.44990193313358        0.93249248634174       -3.28388162832002
C           13.50699450778148        0.74099827405359       -2.32829040271043
C           14.19888052327907        0.39263529167767       -1.11861290232182
N           15.54317815920350        0.37715772091629       -1.35774031972712
H           12.50343030620097        0.14537742672749        0.11305133456291
H           12.46523231051827       -0.54094756632436        2.64633966223328
H           14.35063677033547       -1.03931619444013        4.48669090425804
H           16.06450074126962        0.73153730861786        5.46419353588191
H           16.08069279909854        0.16040321195906        7.88182216495497
H           15.49804324945366       -3.22951689984414       10.23459003709323
H           18.02350960491251       -3.55301831603248        6.99566166505085
H           17.99769467093895       -2.99150498681449        4.57588222893573
H           19.69001461640398       -0.94601784964116        4.47985377209723
H           21.55821997683812       -0.57064897491783        2.59576250117917
H           21.51611364632182        0.37612688877451       -2.60381392710449
H           19.62157953802340        0.83684263213301       -4.44214738278264
H           15.88253033286364       -0.63811547408266       -5.33248827524093
H           15.85620225086989       -0.05860172918042       -7.74817500737686
H           18.65848893799950        1.88832496699335      -10.39540407537457
H           18.01792548386241        3.54360755829484       -6.91162077103150
H           18.03367043198985        2.97510959900408       -4.49361510646662
H           14.29701980288521        1.22265140557089       -4.31099916308767
H           12.43621329721328        0.83254404983491       -2.42055917431633
Zn          30.47316595219425        0.03824275975094       -0.04228879664336
C           33.88128853554713        0.14260229065496       -0.04871817092729
C           33.25495438374117        0.29452991011218       -1.27974016844843
C           33.93312931947401        0.45885149417677       -2.53524242675534
C           32.97757748351500        0.57361784086291       -3.49066465913047
C           31.70224957329096        0.49241826196893       -2.82782334662392
N           31.90602704769933        0.31324446131029       -1.49131505602197
C           30.45216635642010        0.55954463182130       -3.45534693848705
C           30.44353283668023        0.77853824035390       -4.92250022741679
C           30.98860909505399        1.94483093396778       -5.46588562564879
C           30.97978500744011        2.15495753339954       -6.83490682713780
C           30.42558858281302        1.18387430253879       -7.65317681831127
S           30.40126226151389        1.44813266096450       -9.38558113375439
O           30.46953129092743        2.84768793995489       -9.68705680161648
O           31.83669198991232        0.77799796827404       -9.74814786370239
O           29.37589111001195        0.66366358529402      -10.00932632522194
C           29.87659725917459        0.01759119739572       -7.14502064169393
C           29.88706229086049       -0.17952988521253       -5.77420221170441
C           29.21001862177643        0.43825368879694       -2.82161578450218
C           27.93172405752751        0.56765247136653       -3.46573048362183
C           26.98348420589334        0.39812117258056       -2.50944507072920
N           29.01397064396766        0.20789711067974       -1.48678585732228
C           27.67123958722945        0.17232910024046       -1.27212656909124
C           27.03790088414473       -0.05538745399610       -0.03409563663658
C           27.68940444054859       -0.25498891017567        1.19947481392780
C           27.02146358341101       -0.52240156448247        2.43928720311047
C           27.98255059157348       -0.64330958913313        3.39017537571215
C           29.24836361092735       -0.44043835547163        2.74055945107982
N           29.03318921429170       -0.21847343968390        1.40718204976950
C           30.49777525276426       -0.48823109219443        3.36971454411381
C           30.50691883657705       -0.70739291736598        4.83695340346658
C           31.12492826807835       -1.83714718244946        5.37905771075504
C           31.13621308788921       -2.04473420863724        6.74853593511772
C           30.52529378184162       -1.10966158005022        7.56812975147218
S           30.54708645806384       -1.36115452152039        9.30349290813998
O           30.40076810552818       -0.12041055949812       10.00847849041606
O           29.14687800721065       -2.17008547648525        9.45764634967187
O           31.62416116493193       -2.23420049422363        9.66220600849510
C           29.90872887902985        0.02303960156124        7.06144911236465
C           29.90085080060610        0.21853275937948        5.69037404880766
C           31.73920731422565       -0.34391003329481        2.73822294519688
C           33.01962931324857       -0.34642027149696        3.39634192080397
C           33.96260575363907       -0.17134675493964        2.43767854894000
C           33.27082137344944       -0.04844187903307        1.18478529342428
N           31.92652007971120       -0.15129278031469        1.40116987677920
H           34.96630790626062        0.17666852301648       -0.05108827393149
H           35.00458502045180        0.47438428549128       -2.65871861141952
H           33.11927343012207        0.69118184223555       -4.55306429502732
H           31.40528502999651        2.69816204438458       -4.80748358092225
H           31.38924813266292        3.06028450300032       -7.26514058461154
H           31.97283383782107        0.77971621553320      -10.70338377294624
H           29.44692581884439       -0.71812382165290       -7.81322484206818
H           29.47253365053194       -1.08993370939823       -5.35710447613053
H           27.77990443879570        0.77599236633482       -4.51253047648980
H           25.91157527506276        0.42860784833976       -2.62319589637159
H           25.95352457619241       -0.61296229402389        2.55826996330016
H           27.84800403623536       -0.86380097803837        4.43685547244120
H           31.58675540270023       -2.56297155215712        4.71990629565292
H           31.61298613756407       -2.91639952472052        7.17886631621916
H           28.80751033824137       -2.07876258722985       10.35659552732263
H           29.45140435464593        0.74022801167882        7.73150065441538
H           29.43577748852708        1.10475002934712        5.27446763936568
H           33.17240078024648       -0.45608931478610        4.45802483707230
H           35.03336812702046       -0.12018283117019        2.55732926858397
C           23.05985542398800       -0.09053213608477       -0.01252596226150
C           21.83785624227398       -0.08405675692215       -0.00321143024812
C           24.40978310043872       -0.08909900127452       -0.02143590209591
C           25.63181795291574       -0.07986748335835       -0.02809275326117
