316
 energy: -522.977659967983 gnorm: 0.000573953452 xtb: 6.5.1 (b24c23e)
C           49.11912599369930        0.01953892784178        0.10783606185692
C           49.72183419328332        1.20261202813088        0.51506856475855
C           49.06358501562497        2.38180718559829        0.96428100545696
C           50.02010819415085        3.31313984642520        1.25621715822402
C           51.29400469564392        2.73618876829956        0.98714505912610
N           51.06292429377618        1.46138176476830        0.55233415712762
C           52.55261533185586        3.32503090140549        1.14922548826741
C           52.57902443950332        4.73681535329049        1.60505729888899
C           52.02773280046146        5.72065539715465        0.87873576279302
C           52.03053775804973        7.15905890869814        1.32730122632859
N           52.99298577055136        7.37559196671658        2.41056460110475
C           53.37936511531713        6.34121657829109        3.22157249350894
C           53.23492848661756        5.05236699242150        2.86562869336800
C           53.77081826210276        2.68255532345580        0.91437491888337
C           55.06459539633754        3.32650922982824        1.05282254048199
C           55.99052573206611        2.39691498784836        0.73938015808077
N           53.93200365676504        1.39321368576150        0.50853788630823
C           55.26105822020229        1.18987800343779        0.40092639975526
C           55.90344791664438       -0.00467674422195        0.01994267802084
C           55.27504538557587       -1.20324789246588       -0.36671778740968
C           55.92719116304303       -2.40904993908357       -0.73785306708330
C           54.96578171350898       -3.32910832054534       -1.05219313025924
C           53.69542591940965       -2.71087489952569       -0.88820792317840
N           53.93463865830451       -1.42871774315642       -0.46804212178079
C           52.43761322951450       -3.29257131651871       -1.08140802349641
C           52.41969754162670       -4.69807933571682       -1.55298276643042
C           51.85355996679763       -5.67603071987011       -0.82984752019254
C           51.81135118537894       -7.10754188493119       -1.29697615972976
N           52.76973919364709       -7.33991913201230       -2.38097238646292
C           53.16938872374963       -6.30790794970334       -3.18975255922114
C           53.05591449936647       -5.01907448715640       -2.82317082393706
C           51.21771240870255       -2.64499818688099       -0.85873726560919
C           49.91504062154502       -3.24021849782417       -1.11250756479179
C           48.99721102414936       -2.31332839510979       -0.77047619047231
C           49.73768435104759       -1.14754526529237       -0.32230054663550
N           51.07085034508274       -1.38014320429435       -0.39656395706444
H           48.03379385983493        0.01711536476477        0.12627570953900
H           47.99411788735487        2.48867383279764        1.05323755241472
H           49.86413490675664        4.31071352197614        1.63369949922007
H           51.79198392732437        0.80369927404501        0.29706343553012
H           51.54022377112762        5.52610171677570       -0.06952630701164
H           51.01737284618731        7.45883585297553        1.65486352316493
H           52.30743041127717        7.81518218965604        0.49087026414170
H           52.92242825241912        8.28393415078013        2.84560185669318
H           53.88436764621864        6.64328534698452        4.13349145051966
H           53.59084631311688        4.25010048407298        3.49601178862077
H           55.21994529699325        4.35296475269360        1.34330194276161
H           57.06428907975543        2.49468205006747        0.72314789749167
H           56.99642915566994       -2.54617600918795       -0.75474577837439
H           55.11896288860589       -4.34917540353766       -1.36484270820094
H           53.20834443777989       -0.75342701397752       -0.25330830632197
H           51.38292589158686       -5.47945053029327        0.12634653395940
H           50.78994081985272       -7.37030942073667       -1.63066115937190
H           52.06567665110615       -7.78310395126799       -0.46913243322408
H           52.67215375670025       -8.24178585650828       -2.82457641170784
H           53.66002728252334       -6.61377624001225       -4.10832568300691
H           53.42016112756483       -4.22034808391567       -3.45363965922527
H           49.74965133419995       -4.22815968766654       -1.51125135841233
H           47.92124203486136       -2.37903332847618       -0.81643157538316
C          119.99239040487069       -0.06171035105213        0.01777030849478
C          119.38607063341355       -1.27979238220678       -0.26045184569573
C          120.04036035259118       -2.52101755629617       -0.49887084281334
C          119.08078509869937       -3.46374149137983       -0.73979678979842
C          117.80896500956761       -2.82726350235850       -0.66596040431681
N          118.04424671389255       -1.51512437368294       -0.36507941398152
C          116.54848419192156       -3.40799633401714       -0.84179310323462
C          116.51637783304551       -4.84924971428967       -1.19309474015187
C          117.06941398527597       -5.31062471252560       -2.32471937874128
C          117.06110535011808       -6.77118869219164       -2.69483409742502
N          116.09561034421759       -7.51908589515055       -1.88548378315923
C          115.70568056068122       -7.05872207167803       -0.65555173570023
C          115.85290111053563       -5.77409628326216       -0.28576271884502
C          115.33274073839765       -2.73217150442508       -0.71098129176598
C          114.03783477055687       -3.34583437953730       -0.94409055224145
C          113.11483695131365       -2.38610288600300       -0.72803756567245
N          115.17528671201258       -1.42220029906997       -0.37607482214682
C          113.84724670364332       -1.18633656465495       -0.37049211757950
C          113.20805658858546        0.03007918323221       -0.05981485394578
C          113.83973779155568        1.24599691026412        0.26181278529968
C          113.19111139558775        2.46483116232734        0.59455234176218
C          114.15536009422249        3.40582238669934        0.82785476922014
C          115.42403723234348        2.79167608842154        0.63753388303148
N          115.18094412173484        1.48539452468163        0.30250174371038
C          116.68376246299836        3.38204304520669        0.78694036315571
C          116.70726400772271        4.82069788179801        1.14439313310299
C          117.27804424040818        5.25434812812921        2.27844005824595
C          117.32715693748196        6.71225987012183        2.65420403158295
N          116.37133974308504        7.49544766141041        1.86639893943466
C          115.96673997483578        7.06131060794053        0.63078084603194
C          116.07298404944966        5.77677827758572        0.24732630215999
C          117.90157414112502        2.71266451503513        0.62528743199137
C          119.20593171591918        3.34869299066837        0.72430489843047
C          120.12102771197571        2.38066290039369        0.51448041534834
C          119.37719977197324        1.15708775669544        0.27420161089603
N          118.04469008787294        1.39630141695153        0.33958788138428
H          121.07772945557628       -0.07205003451067        0.03256232413876
H          121.10938150940298       -2.66214117629832       -0.47937282677133
H          119.23343974378344       -4.51129532102062       -0.94301196596030
H          117.31739023904086       -0.81920771033013       -0.23611430965719
H          117.56250231265523       -4.65125986602845       -3.02956546466960
H          118.07257892121062       -7.20176721528579       -2.57202374507540
H          116.78440168250997       -6.89169926348384       -3.75113842756918
H          116.16365794337531       -8.52109865274697       -1.98842834820827
H          115.19590811000717       -7.79073607868168       -0.03734917364855
H          115.49391356056920       -5.41761425598826        0.66910266679911
H          113.88008646541356       -4.37021006748781       -1.24057545457705
H          112.04131698668628       -2.45524381394719       -0.80258425349102
H          112.12215151537693        2.59359907430215        0.65028334307862
H          114.00510647463513        4.43454310861042        1.11230509796960
H          115.90523406177820        0.79770220171813        0.12327989582192
H          117.74793993571346        4.57263529882124        2.97767579477637
H          118.35018911659760        7.10858158513854        2.51284924758961
H          117.07480191843044        6.83788366479256        3.71578338487938
H          116.47473552271371        8.49393430796514        1.97603949932936
H          115.47848859242730        7.81517700253030        0.02139732359553
H          115.70504924738505        5.44369721233206       -0.71278592358581
H          119.37413891322328        4.39653288881551        0.91434422266031
H          121.19712844834659        2.45859909716089        0.50664292872171
C           61.10816385797732       -0.04111410402035        0.02425222122235
C           59.88025782855627       -0.03399165252257        0.02230003394611
C           58.53452897084490       -0.02526887265031        0.02029871797895
C           57.31108453792050       -0.01390121187243        0.01861698498648
C           62.45375703687042       -0.04724501377999        0.02566508358242
C           63.67740487120804       -0.05165130523457        0.02617743496621
C           77.15093958926350        0.01416531743941        0.02194548680345
C           75.92187374768388        0.02103032902504        0.02847826492013
C           74.57861415562834        0.02562527379918        0.03139344903084
C           73.35400515816799        0.02587225084101        0.03678416722956
C           78.49411500542965        0.00524764409200        0.01689656352680
C           79.71872759330371       -0.00485404029975        0.01024994640434
C           93.19045158015750        0.04055452520881        0.00399795512673
C           91.96140908590668        0.03844964417381        0.00884454849367
C           90.61820416576391        0.03625785119490        0.01094766192837
C           89.39352002853872        0.03104640772986        0.01431528686551
C           94.53369965309470        0.03925543582024       -0.00087396161403
C           95.75835058040292        0.03771964455286       -0.00914306213527
C          109.23129365911406        0.06287318431746       -0.06948249606321
C          108.00336713446139        0.06369656994571       -0.06742835358086
C          106.65775274783385        0.06381151697346       -0.06274197341734
C          105.43411566603966        0.05983742802172       -0.05506743844737
C          110.57704718823797        0.05567363818250       -0.06900220374502
C          111.80046298915090        0.04411300423076       -0.06723516687424
C           65.08394532373812       -0.05782348008437        0.02595785641844
C           65.70891559375863       -0.26355264459207        1.27062920592452
C           65.05930919206634       -0.44773622285115        2.51869679127568
C           66.02419736793809       -0.59554533976212        3.47738768245171
C           67.29214344534338       -0.51301556093136        2.84029734363344
N           67.05034689116479       -0.30834984323066        1.50778372366652
C           68.55080828118585       -0.59330549837371        3.44697030732001
C           68.56937779411203       -0.84184421708576        4.91045369932609
C           68.08437419995130       -1.97583472281793        5.43788334984990
C           68.14830116333995       -2.27037039219430        6.91363106387086
N           68.39291284098611       -1.04952010799223        7.68585306494092
C           69.03435163535654        0.01947883544559        7.11600794474541
C           69.12592825724816        0.18056649954268        5.78407055866298
C           69.77642400188175       -0.46093614449446        2.79326464708807
C           71.06091813121269       -0.60520981161364        3.45409114510225
C           72.00236001779086       -0.43244056885289        2.50312886962888
N           69.95869017006122       -0.21592285808017        1.46592921641001
C           71.29106490196997       -0.18937169553134        1.26369032420378
C           71.95019019687598        0.02686932426530        0.03618373814010
C           71.32448227973269        0.23178061308112       -1.20923413625665
C           71.97418214902754        0.41442599202237       -2.45718370999471
C           71.00929215387080        0.55377856957339       -3.41725369706275
C           69.74129881688900        0.46856541085208       -2.78067157775326
N           69.98340600331619        0.27055914653843       -1.44690015942101
C           68.48287475620833        0.54072753521226       -3.38815481707072
C           68.46501325758850        0.77584974018241       -4.85380269795294
C           68.94873217607504        1.90531186134705       -5.39206072847110
C           68.89073901715327        2.18385923994209       -6.87114576926590
N           68.64175788715471        0.95625921333461       -7.63117655328273
C           68.00401261511209       -0.10873336325486       -7.05095906799402
C           67.91242141099876       -0.25700546355529       -5.71744727162331
C           67.25701544530051        0.41048007046744       -2.73340068710652
C           65.97256158276450        0.55048904081050       -3.39561429723018
C           65.03092379283632        0.38579133195403       -2.44357693623962
C           65.74163382107021        0.15032608197172       -1.20221363174223
N           67.07507414349014        0.17445532298791       -1.40532581103425
H           63.99016996428234       -0.45780669929462        2.65697009556505
H           65.87485705673086       -0.73985188024396        4.53495716479670
H           67.77116889023080       -0.19727229801774        0.80253785627723
H           67.69080997952466       -2.77177485512621        4.81636673462659
H           68.93889079766119       -3.01616728170118        7.12055680346269
H           67.19793477646959       -2.70286456820044        7.25433448230865
H           68.58670498150518       -1.21684772208914        8.66268899758912
H           69.38550392543027        0.76639102514505        7.82079747178254
H           69.56730343944422        1.06777545542141        5.35294076759143
H           71.20049454086538       -0.82230923535121        4.50090757285054
H           73.07550819240778       -0.46777201492269        2.60278277781813
H           73.04334366034399        0.42820967936379       -2.59492678651992
H           71.15897234869978        0.69400783124004       -4.47530938061306
H           69.26278966847605        0.15857026671482       -0.74159080226590
H           69.33873374875094        2.70878935030781       -4.77803007947516
H           68.10517820588339        2.93175053434684       -7.08899947644234
H           69.84475190995191        2.60755316673343       -7.21329085083501
H           68.45057251996136        1.11305058074633       -8.61014395108804
H           67.65469912463227       -0.86338793422453       -7.74838601781328
H           67.47352693255908       -1.14120013026244       -5.27771322363012
H           65.83356214188757        0.76003036813399       -4.44404915931332
H           63.95783825637712        0.42129856333417       -2.54365887672552
C           81.12231998355551       -0.01889219275779        0.00803780994779
C           81.74835171403048       -0.23717231783374        1.25132926037053
C           81.09894255830419       -0.42409769631211        2.49856698407819
C           82.06411899797861       -0.58392705738594        3.45545749541685
C           83.33146293709201       -0.50611871986724        2.81733837742514
N           83.08933354571316       -0.29210364968434        1.48614123142453
C           84.59034277582150       -0.59681002955904        3.42238181116328
C           84.60674279689519       -0.85286814094167        4.88451487448305
C           84.11528291042995       -1.98703349875967        5.40556435939762
C           84.17204498855361       -2.28780143778068        6.88029214353504
N           84.42109563700032       -1.07148401688842        7.65809276240100
C           85.06840004753751       -0.00274032751398        7.09485591967595
C           85.16510611427775        0.16346373393308        5.76388598188570
C           85.81608761535055       -0.46599107779035        2.76895161119704
C           87.10033569163960       -0.61766234270290        3.42831279283487
C           88.04187439417943       -0.44160942272001        2.47797741936119
N           85.99842743769217       -0.21425274383745        1.44277116515222
C           87.33077721327722       -0.19003721858517        1.24019446672036
C           87.98986193390752        0.03051626061627        0.01335841424511
C           87.36409398101507        0.23894622180816       -1.23170351640607
C           88.01388440920793        0.41938430418047       -2.47972866991904
C           87.04896011295585        0.56197482141619       -3.43955060572105
C           85.78123278535271        0.48215846594990       -2.80235198057652
N           86.02306665334294        0.28264781903985       -1.46879781979904
C           84.52234567893011        0.56258162443705       -3.40874575269379
C           84.50440302710078        0.79673347294319       -4.87448683778276
C           84.99626017745121        1.92159171786552       -5.41491885805686
C           84.93765803349173        2.19829955467869       -6.89430402786240
N           84.68210829489722        0.97063739528176       -7.65209179031825
C           84.03463074761183       -0.08769944540835       -7.06982768207966
C           83.94210309737814       -0.23265192743266       -5.73610965855891
C           83.29655066603604        0.44201289555206       -2.75315375300215
C           82.01268290273164        0.59512865246675       -3.41300217993535
C           81.07090163086744        0.43695158747586       -2.45974791775171
C           81.78141075377131        0.19145049268081       -1.22046617565933
N           83.11382512337893        0.20463624112546       -1.42450882408751
H           80.02996837802027       -0.42762108099846        2.63826594975566
H           81.91486216775144       -0.73303736582985        4.51235431353777
H           83.81001993279611       -0.18245348077265        0.78052331448159
H           83.71978906280543       -2.77831848955565        4.77937972095332
H           84.95705109689082       -3.03932148877265        7.08752682669679
H           83.21757017648537       -2.71569477520328        7.21552733692207
H           84.60938570543455       -1.24313891989395        8.63518618298642
H           85.42014528949036        0.73985472747468        7.80385801542198
H           85.61129904248212        1.05065565491104        5.33776653960914
H           87.23957732809498       -0.84116323016814        4.47382522032519
H           89.11496416717796       -0.48044606678297        2.57694413615235
H           89.08300523652362        0.42918363411673       -2.61804291844324
H           87.19880894682019        0.70133401246127       -4.49768667142656
H           85.30221248292271        0.17367411336847       -0.76325763333293
H           85.39351675833095        2.72278711037571       -4.80258705281323
H           84.15526256075269        2.94951551811478       -7.11223704900460
H           85.89317241335681        2.61689603185935       -7.23829248557124
H           84.49019956443647        1.12758524946606       -8.63096171695368
H           83.67880887134929       -0.84060504621141       -7.76583196667912
H           83.49534509843704       -1.11196808992068       -5.29453512937220
H           81.87401460914434        0.80857745556890       -4.46070047669855
H           79.99801787744909        0.48258871056798       -2.55805255560733
C           97.16210508213517        0.02742964470395       -0.01665230238895
C           97.79405875500962       -0.18682384361261        1.22401837623678
C           97.15081039710758       -0.36793748392791        2.47548028348711
C           98.12057452051079       -0.52376747063126        3.42811056802114
C           99.38507025716915       -0.44997440753481        2.78323191310979
N           99.13620406760893       -0.24130305355827        1.45238298595847
C          100.64666707414035       -0.54024099252714        3.38190587755080
C          100.67056014968067       -0.79256061132501        4.84451913410548
C          100.17496948587196       -1.92263634023582        5.37077758674393
C          100.23649761952247       -2.22202373898702        6.84556035499735
N          100.51232340793734       -1.00975718815544        7.62077144483937
C          101.15881065182887        0.05501582328258        7.05029378919525
C          101.24189651808845        0.22126653485337        5.71828755593563
C          101.86929045386057       -0.41383966867383        2.72043829491841
C          103.15721201692239       -0.56662660272703        3.37303843751495
C          104.09360525677067       -0.39642721488155        2.41683082577787
N          102.04400264966961       -0.16738968839235        1.39320722420723
C          103.37617763357093       -0.14738009519131        1.18197892774341
C          104.02753574455942        0.06525117560925       -0.04879437940601
C          103.39662781037619        0.27008051034813       -1.29060196620553
C          104.04021547180832        0.44323288336702       -2.54335979695339
C          103.07079114788560        0.58709800904560       -3.49804200382092
C          101.80591762734821        0.51527502276947       -2.85354072091890
N          102.05409844562404        0.31864047646464       -1.52096228957171
C          100.54410469206510        0.60080381078471       -3.45304991016815
C          100.51783719612135        0.83466901991963       -4.91866328650502
C          101.01650457467447        1.95475211629061       -5.46292626977240
C          100.94775723832343        2.23289919236507       -6.94162001763054
N          100.67458537656789        1.00814546694425       -7.69802046688851
C          100.02083763906504       -0.04371765439131       -7.11065834938502
C           99.93819914361492       -0.18851424128149       -5.77630333988288
C           99.32172201686831        0.48583693171183       -2.78979824298332
C           98.03431340492844        0.64362407719990       -3.44182546391174
C           97.09776931467358        0.48611676931942       -2.48339982881831
C           97.81498448803509        0.23758668228630       -1.24850422810918
N           99.14616940807682        0.24811765143390       -1.46031503903262
H           96.08253133765285       -0.36984090628031        2.62053958177158
H           97.97648916139285       -0.66739116642907        4.48648387741032
H           99.85321162968339       -0.13535223243769        0.74247157958576
H           99.77106556934564       -2.71259672942616        4.74822423980955
H          101.00945253711585       -2.98694805554069        7.04860000218212
H           99.27686992712341       -2.63313032045484        7.18759177981854
H          100.70944744201273       -1.18333244178196        8.59569573767342
H          101.52359337838942        0.79496782137454        7.75552170689927
H          101.68828801603199        1.10630656274567        5.28792064875051
H          103.30196638329410       -0.78702555782797        4.41845575452901
H          105.16713092189980       -0.43787015102251        2.50973365614316
H          105.10859997320503        0.44770542596796       -2.68756427642520
H          103.21528151971187        0.72205492725743       -4.55750766997694
H          101.33664138204470        0.21539964626459       -0.81111040008643
H          101.42646685808086        2.75191795264411       -4.85369734451561
H          100.17021064311990        2.99125991796968       -7.15214729243233
H          101.90389552617688        2.64317158550185       -7.29371510979116
H          100.47463710364987        1.16814518832238       -8.67482538335436
H           99.65129649573554       -0.79250934976275       -7.80395362948907
H           99.48627681668739       -1.06363674260832       -5.33159763981289
H           97.88975210611547        0.85954274886636       -4.48821005588870
H           96.02445879033176        0.53488438125290       -2.57532738072871
