231
 energy: -413.163247693525 gnorm: 0.000652871739 xtb: 6.5.1 (b24c23e)
Cu          26.01609398316508        0.07588931618710       -0.04066643127605
C           22.60985433120408        0.19781886412990       -0.12378442737637
C           23.24390859948608        1.04720329020293        0.77078053281581
C           22.56916149666313        1.94437799746396        1.66550682465399
C           23.52789012172769        2.58447203795470        2.37967462306936
C           24.79726964672550        2.08959554468853        1.92217298209711
N           24.59357995498034        1.15719491473522        0.94637524730860
C           26.03910947856834        2.48952808433074        2.41729709452793
C           27.27069272713350        1.99624178443375        1.98984901805353
C           28.54574551727955        2.44489203119312        2.47249887073694
C           29.49489491221524        1.74892814014039        1.79730336791723
N           27.46364519985081        1.03705973276715        1.03049727279642
C           28.80706844246340        0.87147865126094        0.89714185868639
C           29.44567524883190       -0.01777099215613        0.01443554961739
C           28.78785443483022       -0.88228241679465       -0.87871085082079
C           29.45500171354097       -1.80972732271053       -1.74355255702755
C           28.49098973010698       -2.46785861239593       -2.43541277442436
C           27.22768152253098       -1.94115674473698       -2.00335955349004
C           25.98511670473993       -2.36443582933038       -2.47232238217891
C           25.96971845749034       -3.42782740621046       -3.51737928442087
C           26.40863933202645       -3.15193411163423       -4.81892959388932
O           26.82514590195968       -1.87818903099473       -5.04762601960665
C           27.29832096480193       -1.49836365392742       -6.32395953601525
C           26.39159563272168       -4.14797748399933       -5.79485518065383
C           25.93976704117653       -5.41653266218764       -5.46406211636318
C           25.50158640295557       -5.71329750269268       -4.18232036706788
C           25.51417325304924       -4.71608882184830       -3.20767762575808
O           25.11119244834909       -4.91027565283641       -1.92367045003994
C           24.63145593860159       -6.17254453975375       -1.50728449592809
C           24.75277669500095       -1.87086403436191       -2.04174034363977
C           23.47498114448875       -2.27792413626677       -2.55857285319443
C           22.53145887805666       -1.55740904585057       -1.90318461585079
C           23.22446459800029       -0.70124897518403       -0.98263762326154
N           24.56953333768251       -0.91205916912997       -1.08779194301761
N           27.44224623717450       -0.97835545819117       -1.05211293634740
C           26.04921069885410        3.52897710614053        3.48636072572746
C           26.40299956880515        3.19090633830017        4.79909063537409
O           26.71545873747919        1.88510246990049        5.01185472233846
C           27.09208100020011        1.43992690565544        6.29913896648409
C           26.40990258158449        4.16210893592200        5.79984611932734
C           26.06750440009282        5.46783862732382        5.48245644803142
C           25.71607907180285        5.82629828657560        4.18978993522825
C           25.70460263889965        4.85414186634488        3.19007104700232
O           25.38092189472118        5.10753616717936        1.89397857134567
C           25.01861509315134        6.41207423677984        1.48902123473351
H           21.52565100703652        0.23816482546251       -0.15204437880579
H           21.49795685487473        2.05495627980073        1.73161159309268
H           23.39711830521791        3.32674003683608        3.15078160481124
H           28.68900935825536        3.20013004006532        3.22841370761916
H           30.56712100141161        1.81729904653183        1.89060419333848
H           30.52434748564767       -1.93711556457820       -1.80125827350027
H           28.61707772837410       -3.24371330053226       -3.17322877919804
H           26.52059749495794       -1.60701678056993       -7.08968163193555
H           27.57744809043081       -0.44611855447579       -6.24370630289839
H           28.17894213007034       -2.08309003207271       -6.61628396513368
H           26.72499549712271       -3.94430533083004       -6.80362105422594
H           25.92855913127613       -6.19155976238824       -6.22256396404694
H           25.15589875058048       -6.71217598877538       -3.95209643522066
H           24.37009108052190       -6.06547821953455       -0.45284130108340
H           23.73849891390001       -6.46904849268257       -2.07092014581483
H           25.39949583480253       -6.94863316153817       -1.61070889918285
H           23.32876536691928       -3.01936718098998       -3.32770858333787
H           21.45981866800312       -1.58901185043297       -2.02428122579972
H           27.29591228137502        0.37180203528582        6.20356912148681
H           26.28588507984645        1.58870512118691        7.02774900112796
H           27.99739982542473        1.94905795165127        6.65135176535093
H           26.67788169039074        3.91077149653761        6.81731539443427
H           26.07483000871103        6.22349914586985        6.26030903064729
H           25.45556990591245        6.85315623299415        3.97062001553783
H           25.83665689364780        7.12477828324572        1.65004366364041
H           24.80301203243974        6.34975713370887        0.42071354898596
H           24.12327289175898        6.76274566953085        2.01680981582305
Cu          63.23993762848542        0.00921071837014       -0.08359322952532
C           66.64363408924609        0.16313268683767       -0.21144343972407
C           66.01574814421799       -0.60204791512002       -1.18304875010409
C           66.69595857779403       -1.33887398731309       -2.21028173417119
C           65.74244024731232       -1.96216613291478       -2.94599404084354
C           64.47072286110684       -1.60548221280604       -2.37940350990135
N           64.66792896246223       -0.78021920546213       -1.31024285008842
C           63.23293287249837       -2.05268340635060       -2.84307001588914
C           61.99918635795844       -1.72269836278032       -2.28477470383615
C           60.72772907856719       -2.14982254576726       -2.79557391078241
C           59.77432822536526       -1.60093299293748       -2.00123754136885
N           61.79993290903541       -0.92265118517919       -1.19033598338380
C           60.45599995876976       -0.83484659472948       -1.00038082178567
C           59.81204620392946       -0.11017970639741        0.01847651921103
C           60.46432796621560        0.64552098318461        1.00920547150757
C           59.79244910034845        1.34777256494605        2.06208343903665
C           60.75167732375287        1.94751872716114        2.81135919484288
C           62.01656593365853        1.62139738189826        2.21672311409703
C           63.25536245453664        2.04311882717270        2.69676225230091
C           63.26346562737618        2.92057013855422        3.90233052216571
C           62.80703198082158        4.24263145755331        3.82063795298136
O           62.38095506927673        4.64878239188960        2.59523992155540
C           61.89243939699113        5.96134948401876        2.40621028282377
C           62.81741336629960        5.06314386788454        4.94820043577691
C           63.28022254266327        4.55681644009820        6.15330652047972
C           63.73577984923964        3.25131528891722        6.25844507140684
C           63.72982591648822        2.43227048387821        5.12983846081554
O           64.15003328698157        1.13911536413443        5.13313446806608
C           64.64010717572285        0.54920948365145        6.32001634746600
C           64.48977379926919        1.71228159859935        2.13618084004387
C           65.76306037525218        2.18198914544003        2.60907615968772
C           66.71022534511634        1.65771785011425        1.79239024737819
C           66.02387253020181        0.86621664365117        0.81098170135667
N           64.67919028743019        0.91703066547873        1.04316752472415
N           61.80796439755878        0.82334614485928        1.12240945812773
C           63.22965924747108       -2.95210800025851       -4.03247900914151
C           62.90277742105626       -4.30731254169149       -3.89414596032847
O           62.60933815986412       -4.72120183109822       -2.63296357530979
C           62.26131291015695       -6.06820904903803       -2.38476424259727
C           62.90182326640341       -5.14930384729459       -5.00585148790067
C           63.22308241010664       -4.63123152517803       -6.25136550623987
C           63.54770139449605       -3.29272878343575       -6.41278758278928
C           63.55333420191159       -2.45187071138132       -5.30032484913155
O           63.85149498156658       -1.12644541648865       -5.35674495353407
C           64.18899278270031       -0.52101297009138       -6.58823205801514
H           67.72693551591578        0.21433269071456       -0.25348695686147
H           67.76704834545272       -1.37028615376882       -2.33627873438757
H           65.87812714843091       -2.60869546319874       -3.79821360673395
H           60.58964142218319       -2.78491554993228       -3.65576352749740
H           58.70300559351922       -1.69816026419870       -2.07788919425535
H           58.72352658877778        1.36803268237403        2.20366885607186
H           60.62143313578906        2.55687223646223        3.69112461624683
H           62.66240515052916        6.71183469684713        2.62283241735772
H           61.60964553365668        6.03164426726258        1.35422632950347
H           61.01128218068656        6.15572879827539        3.02960314815890
H           62.47050472147433        6.08640363327173        4.89496033112354
H           63.28638029923393        5.19432894244448        7.03060649362065
H           64.08984517593140        2.88259488523465        7.21183070557166
H           64.91365526947448       -0.47503250145221        6.05978810603814
H           65.52745714972936        1.07474471664542        6.69336382505742
H           63.87416599103545        0.52886795630860        7.10475467550844
H           65.90392551489278        2.83248269643375        3.45743382754659
H           67.78019971946823        1.78946949996699        1.83573880435340
H           62.06890132588461       -6.13965927776356       -1.31264439064699
H           63.07855653709685       -6.74993193253097       -2.64995743930285
H           61.35630986478311       -6.35683767055817       -2.93294146253707
H           62.65455906429240       -6.19801511886669       -4.90941470148104
H           63.22028536938234       -5.28560561109738       -7.11618845399226
H           63.79212065880407       -2.91559747061579       -7.39684513867650
H           63.36457904889078       -0.58832043090660       -7.30857207385297
H           64.38596514308061        0.52953838983018       -6.36647343206890
H           65.08900436795092       -0.97145704117160       -7.02434590731709
C           30.85124555372570       -0.04269900291886        0.02450398729817
C           32.07563091577283       -0.05661014384530        0.02512381030146
C           33.41887817464982       -0.06697087711839        0.02388198747594
C           34.64961348861232       -0.06850532234541        0.02207585442210
C           35.98811228530350       -0.06783113442474        0.01657701596356
C           37.21892517842095       -0.06409365710762        0.01142904299864
C           38.56197536677619       -0.05778060075920        0.00608297698989
C           39.78657796711550       -0.05200076036500        0.00439074203207
C           49.47229827526719       -0.09792504947991        0.04819671482739
C           50.69696966717450       -0.11589224028035        0.05551748150542
C           52.03973885284071       -0.13352319171884        0.06212012511035
C           53.27038102958090       -0.14673011059441        0.06767816824887
C           54.60865722932964       -0.15515180099067        0.06976590671975
C           55.83938343770951       -0.15757679053132        0.06956046632197
C           57.18248100331208       -0.15175521459975        0.05975585501467
C           58.40699797791051       -0.13962643225592        0.04603138250644
Cu          44.62956706632627       -0.04868309494954        0.02449712868435
C           41.19170212748489       -0.04753266166739        0.00891671470304
C           41.83528016644137       -0.05012907447586        1.25995352126872
C           41.15258718652850       -0.08000800225844        2.51918759507374
C           42.10611734572866       -0.07063516992512        3.48490423773242
C           43.37744173693967       -0.03051619731905        2.82085766113793
N           43.17905584477439       -0.02234435926735        1.46582404088597
C           44.61418400189594       -0.02038296808483        3.46548639959224
C           45.85674631136563       -0.02460919250346        2.83213064851334
C           47.12237543784988        0.01909909920639        3.50673782357164
C           48.08453129407091        0.00153918543045        2.54969429522946
N           46.06709627023231       -0.05878043363881        1.47928555056801
C           47.41280411745735       -0.04665548565185        1.28519146821226
C           48.06747658690369       -0.07969429249424        0.04036402105445
C           47.42405754380413       -0.09230626851427       -1.21065347793838
C           48.10620540232211       -0.13912888908658       -2.46958791037532
C           47.15266241022291       -0.12613622917372       -3.43535186425203
C           45.88188974019777       -0.06832393686091       -2.77153607411693
C           44.64524395548180       -0.05149248167932       -3.41632196278610
C           44.65351591618104       -0.04242530995209       -4.90741669871798
C           44.22965620065757       -1.16751215184752       -5.62670078560903
O           43.83437455695552       -2.23384440391082       -4.88196524892922
C           43.37460744151880       -3.41388242291880       -5.50907790441833
C           44.24021930356778       -1.15795512504152       -7.02116995258346
C           44.67020840765037       -0.02197696522309       -7.69013526805252
C           45.09240185531614        1.10395623058372       -6.99955687607111
C           45.08646696791182        1.09293600606107       -5.60511097556259
O           45.47354691565553        2.14783083099210       -4.84014806137768
C           45.94158211950275        3.33670070505460       -5.44406995652512
C           43.40252173400724       -0.04314523953410       -2.78332584534922
C           42.13712605388829        0.00138550074127       -3.45842012843406
C           41.17484553379360       -0.00017687513890       -2.50131927601198
C           41.84620021332130       -0.03859659844146       -1.23627523391757
N           43.19184276495429       -0.06256153240781       -1.43019116644681
N           46.08054825254365       -0.05244170169071       -1.41665901436254
C           44.60708777766026       -0.00688824605676        4.95643293781595
C           45.02833071056367       -1.13206370137394        5.67733480172699
O           45.41965497459074       -2.20087233131057        4.93414043500569
C           45.88127754142997       -3.37955408011553        5.56249091540016
C           45.01888919641927       -1.12015984061971        7.07176465509567
C           44.59294595481722        0.01828325677128        7.73914557756255
C           44.17377936879967        1.14440945332234        7.04699751901550
C           44.17840083276325        1.13099531674537        5.65257074814621
O           43.79422274243962        2.18593988125831        4.88612959967305
C           43.32681864754452        3.37590520815049        5.48832593909324
H           40.08110302867888       -0.10866561511294        2.63792054792142
H           41.96727714535445       -0.09252139525266        4.55375866842766
H           47.25194528259457        0.06023690770741        4.57617651441320
H           49.15515044552240        0.02345209852692        2.67747506726513
H           49.17734303943992       -0.17973630196533       -2.58813406494886
H           47.29112591298903       -0.15679293401450       -4.50406449573615
H           42.48744097882447       -3.22199966305841       -6.12473673743071
H           43.11009277733253       -4.10221583393248       -4.70421621364389
H           44.15531764166791       -3.86945260079911       -6.13030314676095
H           43.91873081639855       -2.02280230416462       -7.58590365413949
H           44.67653021431742       -0.01398640550305       -8.77458082036472
H           45.42073827349804        1.97691501668359       -7.54762948557981
H           46.19689664240518        4.01272617298524       -4.62590538444837
H           45.16869653362969        3.80216077803170       -6.06772614969273
H           46.83594509165611        3.15328329066422       -6.05183348579114
H           42.00784268077649        0.03152584506926       -4.52826814495070
H           40.10435404295434        0.02716709945357       -2.62922906251308
H           45.10176893306706       -3.83495128159120        6.18534363986221
H           46.14547009973406       -4.06882211441287        4.75831093049045
H           46.76902480591648       -3.18585536075892        6.17673243648471
H           45.33800576428075       -1.98515835805964        7.63762315182397
H           44.58748405544989        0.02809666965526        8.82357687409953
H           43.84886338001093        2.01941028815174        7.59386897933130
H           44.10027463153718        3.84248319947051        6.11045496940897
H           42.43296882910931        3.19362188565007        6.09722421157418
H           43.07080353514456        4.05048000445284        4.66918131582737
