344
 energy: -639.002623625911 gnorm: 0.000459734053 xtb: 6.5.1 (b24c23e)
C           50.70699301518231       -0.07915082041358       -0.59706801717042
C           51.31854490143449        1.13714654804863       -0.87169767338474
C           50.66995622273522        2.35794423466547       -1.21017051676594
C           51.63138917396467        3.31576310954172       -1.36918589724287
C           52.89959450440981        2.70803193828389       -1.14344137781451
N           52.65976048013234        1.39715322525924       -0.84452152340544
C           54.16001866213345        3.31492904626774       -1.18155746061812
C           54.19617430512975        4.75437368098247       -1.54059250221931
C           54.70188819168802        5.69220460203599       -0.64457141441513
C           54.73754726548954        7.04468090125542       -0.98108524116864
C           55.28687891273172        7.99581085725609        0.01800234142099
O           55.28721519953879        9.27022003190687       -0.39928917290369
O           55.69906064371082        7.67848671932060        1.10412335739842
C           54.26658824198033        7.46879713398332       -2.22362568736787
C           53.76262453004897        6.53717586070988       -3.11750917853230
C           53.72514952175849        5.19124535559785       -2.78096195381929
C           55.37018064521556        2.67236419202834       -0.91134062299265
C           56.66976225730509        3.31029653212530       -1.02637536550027
C           57.58540375539827        2.37092043311918       -0.71314669828788
N           55.51966492979189        1.36962503010552       -0.54445526545093
C           56.84476294192791        1.16075255261664       -0.41194309000560
C           57.47710182768757       -0.04600081982085       -0.04884654877479
C           56.83784827959821       -1.26582094331160        0.24386591822335
C           57.47788880440388       -2.48437415712047        0.59340187160562
C           56.50912054728391       -3.43017495860796        0.78387710855933
C           55.24579429055153       -2.81489985752563        0.56137105746329
N           55.49699045779816       -1.50844197143098        0.23497762464784
C           53.98537445565162       -3.41873749248034        0.61731574757443
C           53.94862808570699       -4.84708129670877        1.01671474170387
C           53.44129598716957       -5.81453063279840        0.14627382424044
C           53.40805791732181       -7.15159627278811        0.51713506081405
C           53.87767044240254       -7.53970481022561        1.76078846363930
C           54.38619842769238       -6.58240769741496        2.63994270583340
C           54.87845709923476       -7.03738845349706        3.96465004455310
O           55.35408969401173       -6.04473196596810        4.73050257247477
O           54.86438233154407       -8.18244402435770        4.33758082325285
C           54.42236260197981       -5.24049141647443        2.26663950546482
C           52.77553130717740       -2.77948245908486        0.32722108214441
C           51.46889549597095       -3.40929616469512        0.44000800706491
C           50.56265352852154       -2.47357640268316        0.09284926052037
C           51.31332593410092       -1.27022849800419       -0.22030785611971
N           52.64194896997929       -1.49085340298451       -0.06604994809342
H           49.62421934364195       -0.08578542329262       -0.67156191575180
H           49.60259402467093        2.47672419761034       -1.30707892634319
H           51.48019681519382        4.35557200126695       -1.60987885498238
H           53.38143928166479        0.72072024616868       -0.61889986425489
H           55.06083055982160        5.38218925782230        0.33072560876073
H           55.66021506555933        9.82476252852437        0.30516735703562
H           54.29703985032888        8.51974264838623       -2.48434125795644
H           53.39799567112258        6.85917278400999       -4.08640303680134
H           53.34383132856462        4.46669761178245       -3.49190951353902
H           56.83799660745984        4.33253057020521       -1.32383784654774
H           58.65944993739513        2.46089569346654       -0.68618163392938
H           58.54476623589784       -2.61242893274112        0.68009381609395
H           56.65430367363028       -4.46613657708845        1.04321234621757
H           54.77893412904481       -0.82718884244108        0.01149534979832
H           53.08605417285137       -5.51487499973899       -0.83329904255705
H           53.01535079064340       -7.89161636607485       -0.17081937645785
H           53.85843919851811       -8.57965631866846        2.06652633947991
H           55.65217520687381       -6.42197997691980        5.57414075585018
H           54.80390874843629       -4.49768292318392        2.95720650324711
H           51.29273036403467       -4.42416159657520        0.75845822508856
H           49.48780575748513       -2.55602070553618        0.05333091419486
C          131.80341289428895       -0.16108939614464       -0.61749085560436
C          131.19086505470651       -1.38162706130115       -0.36475406095006
C          131.83771880677006       -2.63535771457127       -0.17713769532782
C          130.87550637542586       -3.57224574956339        0.07484513273914
C          129.60845404178022       -2.92277043912224        0.03767264600825
N          129.84990194659810       -1.60467300254041       -0.22608132599967
C          128.34731658222844       -3.49047456920629        0.25157208827291
C          128.30940628233927       -4.95143738204919        0.50901818421012
C          127.80279006717726       -5.44307561927893        1.70893124761034
C          127.76765021801052       -6.81532905696543        1.95262740199689
C          127.21847707535295       -7.27721120050061        3.25254589164913
O          127.22083302428791       -8.61095300225696        3.39145828280775
O          126.80459248321908       -6.54516904753880        4.11452734972760
C          128.23950385951659       -7.70869300110472        0.99094664229189
C          128.74358079674249       -7.22191529640273       -0.20482998841650
C          128.78085972816729       -5.85562476255616       -0.44569512187949
C          127.13820205326022       -2.79174418083567        0.23755412307534
C          125.83762777296745       -3.42051946981086        0.38642542852530
C          124.92329904722799       -2.43348549662830        0.29310936858261
N          126.99066373644126       -1.45125955608570        0.04915493683222
C          125.66583054566442       -1.20497516447073        0.08511581815767
C          125.03581861262211        0.04834690871526       -0.05851782583165
C          125.67811786198762        1.28309429645140       -0.27098869960585
C          125.04185753586506        2.54332598089189       -0.42517586971666
C          126.01253332588419        3.48312691211792       -0.63479997474204
C          127.27332041645782        2.82438435134112       -0.61031552490223
N          127.01885389228306        1.49686849001398       -0.38790256197389
C          128.53334402197865        3.39418571513948       -0.81964299362312
C          128.57428607418396        4.86242830209991       -1.03001500638727
C          129.05869554827549        5.39354224411335       -2.22759571264318
C          129.09794134483479        6.76643545814972       -2.42750907585012
C          128.65794634221325        7.62596372973130       -1.43483572434948
C          128.17258012429548        7.10758135794558       -0.23333760309036
C          127.71353941325121        8.06137448753958        0.80759608262697
O          127.25926359988361        7.46501041702608        1.91940263367102
O          127.73571638788164        9.25958998673077        0.68800050867496
C          128.12945921751771        5.72917447981699       -0.03400638585833
C          129.74015644449690        2.68754056279307       -0.84624044400511
C          131.04639216463292        3.30462065937536       -1.01863558972829
C          131.95031406092636        2.30574888419434       -0.96834528428913
C          131.19879473880789        1.08149422164480       -0.75388797706112
N          129.87176934935795        1.34978568115789       -0.68470112942099
H          132.88538445099474       -0.18829713757172       -0.69856455492619
H          132.90454850249000       -2.78569945618350       -0.22223792614959
H          131.02559661235938       -4.61973143647265        0.28036080762804
H          129.12947123578692       -0.89353170945976       -0.29349639650248
H          127.44306634193028       -4.76274794989100        2.47307577473499
H          126.84754087828200       -8.83072862574898        4.26052013191687
H          128.20964516979632       -8.77467848957842        1.18112327708777
H          129.10873424748505       -7.91056893242217       -0.95836408857825
H          129.16251274209998       -5.48343233378397       -1.38995972641953
H          125.66806763333538       -4.47591461107334        0.52480942533941
H          123.84907411377036       -2.50387652025782        0.35189105803057
H          123.97600171501385        2.69975042596788       -0.38467852779825
H          125.87037707721336        4.53792102467270       -0.80445592754778
H          127.73437708075490        0.77958098526721       -0.33141677919114
H          129.39162361849719        4.72202491515326       -3.01102842328947
H          129.47250245679851        7.16379405258465       -3.36395034312086
H          128.68304859048237        8.70084190356488       -1.57396346676585
H          126.98243650413912        8.15240487683340        2.54683459015926
H          127.76558478225134        5.33012102118417        0.90543244792946
H          131.22406951329361        4.36066424500245       -1.14357732772222
H          133.02421488359900        2.36155205792314       -1.05376725832667
C           58.88064159600579       -0.04796402375520        0.01850717408862
C           60.10455977834871       -0.04964099979226        0.06569713147009
C           61.44604788632304       -0.04728017261715        0.10674912748673
C           62.67674818736697       -0.04342022158742        0.13419767103572
C           64.01389031752906       -0.03681171192309        0.15532197326437
C           65.24492417617027       -0.03112860029063        0.16655511877392
C           66.58673053092261       -0.02441705174910        0.17195208174916
C           67.81179669285812       -0.02057247869726        0.17106826915318
C           77.48368507159532        0.01547199467272        0.07534569310591
C           78.70891480338457        0.01635066162421        0.06267754138298
C           80.05048789739143        0.01958125665016        0.05244565332046
C           81.28181706114319        0.01972739754149        0.04503641540288
C           82.61874675819428        0.01919848150572        0.04000810490773
C           83.85011192305583        0.01806536818230        0.03907724636377
C           85.19172767119747        0.01726679275698        0.04090150602963
C           86.41703416138640        0.01249188835695        0.04414021276827
C           96.09240581637964        0.00367412695049        0.04144218384429
C           97.31770591371776        0.00172095143694        0.03518909186101
C           98.65935606622271        0.00238997588409        0.03193059313643
C           99.89089491251409        0.00192301132988        0.03113484891494
C          101.22788053182029        0.00276887323813        0.03328327651674
C          102.45925618169215        0.00313124346478        0.03846581470168
C          103.80089660593958        0.00574213071770        0.04755247038870
C          105.02616313865551        0.00529140199388        0.05863784657632
C          114.70040816732853        0.04989153393846        0.12478185554884
C          115.92545869208328        0.06129402469185        0.12246097359554
C          117.26724303542386        0.07527863515524        0.11693243123081
C          118.49825372159721        0.08848223905456        0.10784889095637
C          119.83545478624832        0.09670386925234        0.09277263190714
C          121.06629142801862        0.10014330426517        0.07223149962562
C          122.40802136730753        0.09386685057714        0.03893320549560
C          123.63222638826528        0.07832912279931        0.00132754858418
C           69.21571651977290       -0.01457945136550        0.16442107611560
C           69.83893947616700        1.23751282072299        0.33085568429210
C           69.18665292995661        2.48857168012495        0.47890916152631
C           70.14894176195573        3.44849633813760        0.63599668909448
C           71.41734442881369        2.80796554112946        0.59690823500197
N           71.17926930644494        1.47433196735008        0.39986433977132
C           72.67561658807384        3.41022971049093        0.71983395524033
C           72.68240081015037        4.87319801481519        0.97287603581481
C           73.27141977343372        5.74596620740794        0.06247119264062
C           73.27433718427672        7.11976765492145        0.30059119826443
C           73.91416921959102        7.99967980753432       -0.70997943420805
O           73.86697995865589        9.30169684599842       -0.39291938026632
O           74.43214194410700        7.60640782544677       -1.72346283459329
C           72.68785982168373        7.63024821862446        1.45853841207830
C           72.10218184617800        6.76306328514793        2.36735244542200
C           72.09629489979952        5.39609687762052        2.12807271234740
C           73.90379004676385        2.75490222057716        0.62560556677307
C           75.18718936853685        3.40859923221645        0.81222251348599
C           76.12881887370607        2.45926912611961        0.63526233165560
N           74.08692606248275        1.43107142680456        0.36322698253049
C           75.41928797627918        1.22728018269404        0.35095028226217
C           76.08001076065641        0.00907699051646        0.09150010667386
C           75.45596808405332       -1.22938380917491       -0.15617315068754
C           76.10674648627480       -2.45532353377846       -0.45060689028171
C           75.14458071911173       -3.41502115344334       -0.60840098939875
C           73.87768606524753       -2.80301669576048       -0.40474924284853
N           74.11663545042748       -1.48000686747962       -0.14472964919001
C           72.62017001619418       -3.41503060220375       -0.46721235406644
C           72.60922887595216       -4.87564462509108       -0.73378968008540
C           71.99079232198342       -5.37955379839207       -1.88029318134596
C           71.97863993584033       -6.74373530818615       -2.13533436609446
C           72.58027727754279       -7.62141714830558       -1.24902325148992
C           73.20044738831476       -7.13015628524588       -0.09931843361986
C           73.83231169706968       -8.10308501720684        0.82714832018502
O           74.40698527320512       -7.53173160718915        1.89560861459733
O           73.84274726879522       -9.29510712895557        0.65618834726826
C           73.21555828264667       -5.76021123335840        0.15531579404205
C           71.39297923857015       -2.77118126095753       -0.30154293400577
C           70.11246925756096       -3.45594690037498       -0.30922908842691
C           69.17036493301200       -2.50654749626003       -0.13290704338147
C           69.87725712083817       -1.24717306548062       -0.00934207856418
N           71.20880958809649       -1.43719541533148       -0.10133281523462
H           68.11789850235392        2.62827498113562        0.46100271875433
H           69.99516243174594        4.50822014024206        0.75792453702056
H           71.90223599525262        0.76812559822240        0.31117392009393
H           73.72121604086195        5.36800799842472       -0.84909983048960
H           74.30342211764611        9.80659454283689       -1.09826549040532
H           72.69268855393157        8.69770993445829        1.64261484206548
H           71.64731007140360        7.15240431296966        3.27114406330861
H           71.64782288979947        4.72260600811625        2.84992514218748
H           75.32655053939919        4.44900945935233        1.05689742506666
H           77.20117479039294        2.55523580095337        0.69253901390830
H           77.17447246310664       -2.57743104112444       -0.53480071589054
H           75.29699198980350       -4.45358722038194       -0.85256209751844
H           73.39484491898092       -0.78756350386941        0.02490805107896
H           71.52958815260990       -4.69265986055403       -2.58099397223942
H           71.49798887428817       -7.11984676801895       -3.03120512351831
H           72.57901182512171       -8.68995641888820       -1.43225661143300
H           74.79249824665428       -8.23072280025171        2.44853177561215
H           73.68495730873711       -5.38314105366364        1.05625972288535
H           69.97529033274809       -4.51938015439698       -0.41971130937898
H           68.09963089732111       -2.62177869687596       -0.08028365821407
C           87.82073138853806        0.01114521749826        0.04990610651272
C           88.44879542833478        1.25810891762814        0.23722453066615
C           87.80166677858725        2.51106106982246        0.39167842521382
C           88.76735349101504        3.46404837032895        0.56895544246021
C           90.03271306747681        2.81720222496203        0.53603359572974
N           89.78951390405201        1.48683480481476        0.32285856387896
C           91.29257689907207        3.41203948898729        0.67645570325398
C           91.30449552559598        4.87256813321528        0.94321187395639
C           91.90574749765995        5.75041389627816        0.04576869597711
C           91.91585779943452        7.12172016398404        0.29747045541357
C           92.56986030888176        8.00705172484092       -0.69927185195748
O           92.52960417708005        9.30610650213170       -0.36953864825840
O           93.09302298955882        7.62001170360159       -1.71245391562365
C           91.32399571027771        7.62459100610659        1.45599516142537
C           90.72556021991667        6.75237701299549        2.35159750526488
C           90.71271945617835        5.38785493188901        2.09888284299222
C           92.51894356375395        2.75252537198456        0.58674478743707
C           93.80330337542674        3.39979744500636        0.78862512302441
C           94.74279690174826        2.44865889304924        0.60998236001033
N           92.69912358624796        1.43035011951145        0.31468548766184
C           94.03088875023931        1.22176710776032        0.31051579199888
C           94.68868566575520        0.00261358862793        0.04853535178577
C           94.06089742813158       -1.23221739773400       -0.20759486825405
C           94.70829086131114       -2.46110968161070       -0.49658345265402
C           93.74280765373383       -3.41603335812091       -0.66318823576676
C           92.47714481649369       -2.79764196975134       -0.47169107482021
N           92.72020372165316       -1.47605557774402       -0.20894479188479
C           91.21729037650744       -3.40368920455065       -0.54887893671933
C           91.20498163479942       -4.86528067159053       -0.81024991293903
C           90.60138228386285       -5.37343959787559       -1.96266904552392
C           90.58996395571393       -6.73890522322874       -2.21108797926835
C           91.17780524625682       -7.61347526865096       -1.31253110230284
C           91.78340880759581       -7.11786495041606       -0.15692905388549
C           92.40182832180670       -8.08714246733957        0.78235067021517
O           92.96457685920025       -7.51122302630587        1.85473561327974
O           92.41209364413328       -9.28005984666347        0.61780311358150
C           91.79747204376874       -5.74678483340876        0.09124555016891
C           89.99101158784515       -2.75418890212398       -0.40107698374054
C           88.70723404868448       -3.43228058324369       -0.43054640832151
C           87.76732769819759       -2.47855109237336       -0.26630106883016
C           88.47864032485782       -1.22331611731484       -0.12672806607680
N           89.81026205633005       -1.41959884129295       -0.19989051579814
H           86.73393374100382        2.65681904494188        0.36395529141577
H           88.61798917920757        4.52326348654283        0.70044705738464
H           90.50946853242736        0.77755814954446        0.23421248695032
H           92.36009184488913        5.37844971733863       -0.86601004746068
H           92.97522084207691        9.81479504321514       -1.06638936109074
H           91.33470614721584        8.69009514897911        1.65084908927598
H           90.26637387031087        7.13578877746683        3.25574752306135
H           90.25452026904230        4.71022712151356        2.81069193895276
H           93.94479966798524        4.43746373395254        1.04346666714420
H           95.81504357930889        2.54018608583092        0.67586992257534
H           95.77614027088426       -2.58852554267424       -0.57074667203722
H           93.89241736056380       -4.45528959858905       -0.90611202016218
H           92.00048936728587       -0.77995846494424       -0.04557987576792
H           90.15163498742278       -4.68913467866124       -2.67326438257490
H           90.12094632754584       -7.11846506011441       -3.11165095572605
H           91.17713788959522       -8.68285990462497       -1.49074889944052
H           93.34223465590894       -8.20798764072679        2.41582963940854
H           92.25561078357374       -5.36609820123699        0.99646335826005
H           88.56626632168667       -4.49461057499669       -0.54667935018676
H           86.69531548238930       -2.58837554098488       -0.23083827089812
C          106.42980337627833        0.01144487520596        0.07335841124643
C          107.04942414683474        1.26196088936160        0.26506277450052
C          106.39411658346276        2.51131498982138        0.41506965512043
C          107.35320857851787        3.47023039783652        0.59583365569227
C          108.62255773030381        2.83088656365445        0.56975036960799
N          108.38824403972703        1.49868408925969        0.35746972243512
C          109.87814997399362        3.43322857773603        0.71393337360181
C          109.88259906408442        4.89500848283448        0.97400037240126
C          110.48391552522112        5.77052472737481        0.07429654781079
C          110.49108444716846        7.14277502612932        0.32065756564981
C          111.14666207823451        8.02515806332968       -0.67769381489414
O          111.10793096357611        9.32492599068435       -0.35078680934774
O          111.66988578173233        7.63518308250502       -1.68973229830309
C          109.89579500457975        7.64898222090981        1.47597599623397
C          109.29640602422639        6.77917975676952        2.37328305960936
C          109.28668855249117        5.41360241562170        2.12596803054080
C          111.10861506717161        2.77989154546327        0.63354768295866
C          112.38820130108908        3.43526223286750        0.83959146979205
C          113.33383206153047        2.48833210664940        0.67169020922062
N          111.29734258012837        1.45754171156433        0.36929805848347
C          112.63036742489291        1.25605996998947        0.37448212571912
C          113.29642955376497        0.03923475094301        0.12405928850020
C          112.67767381343565       -1.20018260098589       -0.13083004473417
C          113.33412955665085       -2.42641266039616       -0.41041408187596
C          112.37520753769373       -3.38664810217145       -0.58422387297223
C          111.10456206819657       -2.77431093147698       -0.40660682919482
N          111.33823601921911       -1.45110159666250       -0.14413390843325
C          109.84839748650562       -3.38653325384449       -0.49659646011445
C          109.84661628357587       -4.84829143511006       -0.75736676060276
C          109.25814130568371       -5.36051809115414       -1.91578286313691
C          109.25837557604690       -6.72605672312834       -2.16419377058156
C          109.84323406250540       -7.59668426299238       -1.25988517231401
C          110.43366295931048       -7.09703687824696       -0.09817308231474
C          111.05023017828408       -8.06189326701880        0.84682791050351
O          111.59787031222768       -7.48203592102649        1.92484850454029
O          111.07160284384163       -9.25465965610901        0.68189487526816
C          110.43560926448200       -5.72593042082897        0.15021365424502
C          108.61767141050019       -2.74277013058994       -0.36193568984426
C          107.33740316022899       -3.42683499184756       -0.40468374437660
C          106.39150132406579       -2.47779923813464       -0.24795034798875
C          107.09552287534386       -1.21933108699266       -0.09999272765044
N          108.42859776437234       -1.40915360956367       -0.16136516111398
H          105.32569131317581        2.65075871327614        0.38198089462351
H          107.19708955463153        4.52869606755433        0.72557298954629
H          109.11278469578107        0.79351693785688        0.27347122331006
H          110.94142294833600        5.39571315259068       -0.83473386598356
H          111.55535971695511        9.83149876403157       -1.04802288324343
H          109.90472314482307        8.71518477331681        1.66706370479701
H          108.83452929492445        7.16527074371962        3.27491809487973
H          108.82831717556931        4.73787886040639        2.83946821576711
H          112.52265516167331        4.47497050884658        1.08979860106356
H          114.40511793164534        2.58604316085658        0.74366843127159
H          114.40329416899320       -2.54841997194638       -0.47401657448149
H          112.53260018200136       -4.42561084149815       -0.82345317727862
H          110.61334359452893       -0.75836098181488        0.01040842871688
H          108.81127750220161       -4.67928851884312       -2.63113887710932
H          108.80114198548715       -7.10875160123269       -3.06948860413442
H          109.85199089538783       -8.66599991378063       -1.43832111198809
H          111.97577673141689       -8.17582736538908        2.48942429483808
H          110.88192655541820       -5.34221969240090        1.06004438165755
H          107.20257377093355       -4.48964620009002       -0.52376427520180
H          105.31971242060767       -2.59269570171191       -0.22295258425296
