173
 energy: -302.005742134709 gnorm: 0.000411819367 xtb: 6.5.1 (b24c23e)
Zn          22.13399197187937       -0.01987883989985       -0.01035449068479
C           18.72381833721298       -0.05628665759498       -0.04935775984559
C           19.35394337643319       -1.28783576906912        0.08206103643877
C           18.68037179549103       -2.54751607191559        0.23190937179914
C           19.63960712007360       -3.49904259192247        0.35056175364948
C           20.91233925322985       -2.83232119620321        0.26607692009234
N           20.70353279128802       -1.49362668533573        0.10915858535553
C           22.16366594639751       -3.45257356232258        0.36724530169670
C           22.17466762252420       -4.92700126042352        0.52730801742259
C           22.70202396564455       -5.52995412183930        1.66876876818709
C           22.68401874453964       -6.91181507648758        1.77355970387975
N           22.18803685313119       -7.70390157952775        0.82835724832313
C           21.68625937444921       -7.13760956548722       -0.26454117271495
C           21.65495922960801       -5.76566078676276       -0.45819742418053
C           23.40272294849915       -2.80423380555247        0.32945164927965
C           24.68268922448580       -3.45446328988920        0.39153199861381
C           25.62856846849829       -2.48562010831093        0.29704560222203
N           23.59582499719453       -1.45578658843625        0.18899072056080
C           24.93770527247708       -1.23601838677023        0.16839735804239
C           25.56839804937091        0.01559905429071        0.02006838615792
C           24.91485343182434        1.25482895837910       -0.13197354596392
C           25.58207772620105        2.51182276774897       -0.30528023955336
C           24.61819806428975        3.46124600965365       -0.41438746051631
C           23.35087948638073        2.79313477145106       -0.30152353872783
N           23.56916891593306        1.45106633169951       -0.13988007732725
C           22.09947837574401        3.41446764186624       -0.37558566797524
C           22.08295832179600        4.88962044441655       -0.52523060710092
C           21.51564793597732        5.49910848056906       -1.64402556120843
C           21.52091125630825        6.88182639783759       -1.73696511793899
N           22.04147907956533        7.66913619268239       -0.80095336696237
C           22.58364305210141        7.09670821536858        0.26922465305480
C           22.63026109235265        5.72338746065853        0.44956490229074
C           20.85974520330689        2.76547892430515       -0.31978799007929
C           19.57463982225921        3.41273612777395       -0.35335857974272
C           18.63368585622749        2.43978264666202       -0.26639698962908
C           19.33099829714611        1.18801111178748       -0.16821290357084
N           20.67644517518193        1.41936448173185       -0.19792998350788
H           17.63822302777374       -0.06615376115732       -0.04841778355667
H           17.60927716373716       -2.67468890962554        0.25002443401715
H           19.50237196461774       -4.55866276926857        0.49534269878853
H           23.10583803284297       -4.92377462029068        2.47096755345228
H           23.08446760608097       -7.40356290850317        2.65539725722545
H           21.29122510007623       -7.81053984270023       -1.02003643565720
H           21.24613365202095       -5.34923530644673       -1.37121325131805
H           24.83642587769283       -4.51763165998651        0.48252324224872
H           26.70082926957628       -2.59989584362373        0.30630124332872
H           26.65185488715382        2.64241750411517       -0.34349506248311
H           24.75145136076018        4.51952116259729       -0.57107478701962
H           21.09006122787072        4.89726211250448       -2.43824477071088
H           21.08775175914214        7.37839697717559       -2.60050991901985
H           22.99934706675814        7.76572857334248        1.01711337636376
H           23.07144658048122        5.30207292245860        1.34510843579124
H           19.41710691922041        4.47718224528489       -0.42186134054862
H           17.56045537961394        2.54875136036525       -0.26061583918498
Zn          54.23469791426166        0.03228861539455       -0.00928397828839
C           57.64496309541187        0.04716991109244       -0.06367659817071
C           57.01726496639246        1.26445615965348       -0.29882934661464
C           57.69346242432040        2.51120688560616       -0.52530342172011
C           56.73621286907200        3.45729644715744       -0.69330069954668
C           55.46211839368386        2.79746543746808       -0.58040916851685
N           55.66810386602987        1.47166864942028       -0.33494453276969
C           54.21196036480714        3.42135970075708       -0.67326115209173
C           54.20359040303975        4.87731425667008       -0.95555925262513
C           53.67112670764622        5.78980256118296       -0.04529653647369
C           53.69201641273630        7.14131659728573       -0.35146718241153
N           54.19537122354730        7.61990330951441       -1.48478605532852
C           54.70173481582302        6.75676902732547       -2.35969423896322
C           54.73080630511782        5.38851714335354       -2.14101061241356
C           52.97146244768045        2.79234586909133       -0.52314359776279
C           51.69290879730344        3.43240378349222       -0.66639728743053
C           50.74501410838772        2.48140317446682       -0.46776448409101
N           52.77561276633065        1.46451241085078       -0.25143432410005
C           51.43333768773173        1.25078344751112       -0.20883319869297
C           50.80023129020286        0.01618207052230        0.03908820764049
C           51.45152142703474       -1.21116888390550        0.27508842379915
C           50.78148787744733       -2.45956965820962        0.49354751295568
C           51.74336128049684       -3.40180444279356        0.66488583297486
C           53.01234564363698       -2.73546197126829        0.56092273113293
N           52.79684910165928       -1.40551993801209        0.31594399893708
C           54.26240957574920       -3.35559705990133        0.66208117463484
C           54.27650236602828       -4.81031611755674        0.94922786533668
C           54.83172824550041       -5.72048735429193        0.05008436226865
C           54.82394668487311       -7.07066266226450        0.36227829531516
N           54.31206062307493       -7.55040231730847        1.49134941057744
C           53.78184172807457       -6.68987785804515        2.35463506661485
C           53.73868219917185       -5.32306510792091        2.12931276336142
C           55.50331272526526       -2.72332395049660        0.51492497373278
C           56.78717500297550       -3.35604109567754        0.66631637278068
C           57.73013792028863       -2.40326863209391        0.45977222284495
C           57.03534200164012       -1.17571561454248        0.18922316473942
N           55.68938185373676       -1.40153453554397        0.23456048361829
H           58.73057258220691        0.05435700009913       -0.06768921925913
H           58.76481699127680        2.63610497722710       -0.54383993573317
H           56.87565318523734        4.51237216878437       -0.86639268053610
H           53.26112637752421        5.44662142641252        0.89714464701466
H           53.28780429558175        7.87099489262075        0.34420390596325
H           55.10281849848223        7.17741998012895       -3.27724315399033
H           55.14370301986036        4.72166149826317       -2.88864948635087
H           51.54151955105394        4.47352803805734       -0.90178839849910
H           49.67300580394025        2.59446149210426       -0.49778325573125
H           49.71127866037374       -2.59162345462771        0.50543263526211
H           51.60747422702282       -4.45792187745873        0.83331576417896
H           55.24984517655188       -5.37654594137565       -0.88854418223875
H           55.24747659243536       -7.79815771719428       -0.32421769576002
H           53.37326739969799       -7.11146873057335        3.26844251930944
H           53.30743531474728       -4.65829998105443        2.86839185805231
H           56.94249578811553       -4.39420519776630        0.91260980028118
H           58.80320942999222       -2.50900090982548        0.49251942881212
C           30.77086336616942        0.03145894036066       -0.02374790173262
C           29.54269046670507        0.03346675778122       -0.01042089456275
C           28.19802645424256        0.03048409297274        0.00071138729017
C           26.97425269197826        0.02656537862378        0.01212733298685
C           32.11540259699976        0.02635652044880       -0.03362401648130
C           33.33933211148366        0.02104858174745       -0.04077788370874
C           46.82613871765349       -0.00076147711103        0.02312021950093
C           45.59794762328428       -0.00247475366613        0.01141502364779
C           44.25358327621706       -0.00279948246919       -0.00055967110221
C           43.02958982375710       -0.00301341695197       -0.01191286502540
C           48.17064434832672        0.00254258966569        0.03212325119282
C           49.39453589390548        0.00677134027567        0.03850097580696
Zn          38.18472141989248        0.00001773757672       -0.03699558777014
C           34.74461154082195        0.01271008294777       -0.04318218911965
C           35.38336425281079       -0.89032992687846        0.83043367402643
C           34.70089696918728       -1.77183876384006        1.73093590358742
C           35.65313278720313       -2.47388815433394        2.39690865598159
C           36.92716597063691       -2.03304191563884        1.90156171708083
N           36.72632193549472       -1.06353130319011        0.95591324476375
C           38.17111764893846       -2.50194325030629        2.33759516387577
C           38.16600786492513       -3.57385538076937        3.36292773446742
C           37.60447647729975       -4.82359732702227        3.10361319781481
C           37.62604324755646       -5.79319362021191        4.09368933253458
N           38.15654909129018       -5.59005219168879        5.29539370828093
C           38.69179948570924       -4.40071141967031        5.55185216225685
C           38.72273247652533       -3.37061355526352        4.62521522032811
C           39.41989695120763       -2.05056169380240        1.89685937297180
C           40.68866794592465       -2.57582510005164        2.31773768295861
C           41.64850352323849       -1.87882258795693        1.65732724144290
N           39.63132768721647       -1.05663397917240        0.97932925827524
C           40.97594261016888       -0.92859630145669        0.82167773903003
C           41.62451854644755       -0.00368588062992       -0.02137550626363
C           40.98551954405308        0.92056998128771       -0.87236463306418
C           41.66767329616141        1.86776008115916       -1.70367287189761
C           40.71542728487800        2.56421492814462       -2.37553455995053
C           39.44169152589483        2.04233212545740       -1.96540365366750
N           39.64267196205613        1.05046105594521       -1.04333736857727
C           38.19790720679936        2.49598476216596       -2.41813801434697
C           38.20487572773492        3.56259404573609       -3.44887896792913
C           38.77488734673972        3.35143755114360       -4.70399574468808
C           38.75490209899360        4.37596172436895       -5.63704635956423
N           38.21773995997999        5.56719350409904       -5.39356900268470
C           37.67473148116166        5.77798213609940       -4.19879186100253
C           37.64204742989423        4.81450470361972       -3.20303334832684
C           36.94888511048759        2.03449768427904       -1.98845382047769
C           35.67982788036707        2.48066511508867       -2.49190729410834
C           34.72013405696463        1.78911646645419       -1.82562773444796
C           35.39297935315023        0.90755205366948       -0.91801498460507
N           36.73760294290749        1.07065882316075       -1.03927469741846
H           33.62990031470505       -1.83520796886903        1.83950906776453
H           35.50714999256341       -3.21667950947697        3.16444496496090
H           37.17102611690414       -5.03826601802469        2.13402004155833
H           37.19896353318324       -6.77542516933539        3.91335771192859
H           39.11495461956082       -4.26425850459444        6.54283664644232
H           39.15982385553020       -2.41316797603394        4.88279962300062
H           40.82611523084633       -3.38257643431788        3.01948142624688
H           42.71853442190924       -1.99652671757199        1.72067773147534
H           42.73848859830427        1.98343505797175       -1.75687991151633
H           40.86101252618942        3.36898360642109       -3.07790420141380
H           39.21371229176361        2.39205191669326       -4.95120606465622
H           39.18847846341835        4.23315207965685       -6.62260167897607
H           37.24656853316205        6.76159665569222       -4.02894266078215
H           37.19896399193388        5.03580085500632       -2.23930478861448
H           35.54182904518451        3.21974715115270       -3.26448028635879
H           33.65001313264114        1.85868346030274       -1.93903568626527
