224
 energy: -382.462324920053 gnorm: 0.000817743047 xtb: 6.5.1 (b24c23e)
C           40.20765179054418        0.04310341868606        0.07794511193511
C           40.81309574934325        1.27649150303987        0.28044560510131
C           40.15803310526157        2.52622581286208        0.46710429932174
C           41.11766080074031        3.48253859072017        0.64455511838575
C           42.39016102790415        2.84575478641963        0.58227332285849
N           42.15568918749353        1.52031626024941        0.34995206861704
C           43.65190303424778        3.43583199921624        0.71566310535107
C           43.67961132593961        4.89044983680341        0.99763372361159
C           44.29593155535806        5.78549238297628        0.12357970471010
C           44.29227991488531        7.13769882078733        0.42696317712910
N           43.72879797895210        7.63250928710611        1.52451325605273
C           43.14259291892229        6.78613038968805        2.36495695598551
C           43.08935362623880        5.41864808080171        2.14540398890541
C           44.87014375784286        2.76041531890193        0.60894960191967
C           46.16275258584914        3.38331364063881        0.83050510816272
C           47.08800004449758        2.42055000267552        0.63931906934808
N           45.03162623664878        1.44198206297935        0.31098942175883
C           46.36046375088811        1.21088098186752        0.30680351912196
C           47.00212179491698       -0.01210265076709        0.02738625138463
C           46.37002748837411       -1.24152512228637       -0.23658935587939
C           47.01450695110697       -2.46481450987389       -0.55997845101703
C           46.05012173399250       -3.41810327779803       -0.73581413135156
C           44.78476795736878       -2.80578739171417       -0.51950812614499
N           45.02951817990301       -1.48953726714297       -0.23005369811131
C           43.52430386370406       -3.40635968695806       -0.61005489795188
C           43.49772524633153       -4.85726517083215       -0.90747469726485
C           44.10020367707838       -5.78491435704567       -0.05801318933599
C           44.04693851336571       -7.13176621728114       -0.38082983020955
N           43.44900805225472       -7.59157301685392       -1.47510535951398
C           42.87395951236567       -6.71414500872213       -2.29149799694635
C           42.86992111468706       -5.34934715335320       -2.05168135665015
C           42.30512778816112       -2.74032135139387       -0.44758524867846
C           41.00429481954274       -3.39029254176297       -0.49236697659593
C           40.08660793193650       -2.42150089809464       -0.30121443393261
C           40.82568237296979       -1.18294731217984       -0.12964075725977
N           42.15873420918356       -1.41487261832656       -0.21280415626497
H           39.12234980065332        0.04741527213849        0.08422793456424
H           39.08845818324470        2.66294926841852        0.45892500103911
H           40.96379276746354        4.53845246485865        0.79700746182033
H           42.88299137176251        0.82123570205513        0.24255131614756
H           44.75782178746233        5.42867893029268       -0.78924043925529
H           44.76225799671233        7.85412349393179       -0.24045744886646
H           42.69423833866486        7.21966859042698        3.25417217953299
H           42.61173384379494        4.76569074901666        2.86630055014993
H           46.31866416172925        4.41217130482807        1.11152805898189
H           48.15995590319788        2.49442204146924        0.72546956007242
H           48.08084121694477       -2.58909485132232       -0.65631161203760
H           46.19877245481073       -4.45117839843285       -1.00445638232048
H           44.30614465175583       -0.80103379722313       -0.05022922453241
H           44.58761405435071       -5.45845791405914        0.85303988019066
H           44.50455238549122       -7.87282837759303        0.26808642869936
H           42.39570771865612       -7.11983804650161       -3.17821773814633
H           42.40032630275874       -4.66992934229096       -2.75293339846599
H           40.84106418455833       -4.44605178618032       -0.63720735247923
H           39.01176773557225       -2.50641599220519       -0.26717338357002
C           79.69629073967494       -0.00906894071604        0.04502982748760
C           79.10510918224470       -1.21161600422222       -0.31944040090119
C           79.77383093892604       -2.40986821027664       -0.69726148523060
C           78.82435001069092       -3.34986910609277       -0.98276539344627
C           77.54446454673179       -2.75889301343243       -0.77851833635576
N           77.76491917916304       -1.46941815428798       -0.38569815246881
C           76.28972086480175       -3.34742160853017       -0.96930821533960
C           76.28289560871829       -4.76583154359514       -1.40136701024523
C           75.73022862653796       -5.14777480631572       -2.62330527821991
C           75.75207549687302       -6.48503519767644       -2.98655700448974
N           76.27610021476244       -7.43569994186347       -2.21944512632277
C           76.80272537030964       -7.08066370581548       -1.05199864508102
C           76.83263927037362       -5.76922292024578       -0.60425826530674
C           75.06176981157307       -2.70676734470386       -0.78669016780616
C           73.77713446164864       -3.36192850894026       -0.95464299412648
C           72.83724181586766       -2.43314282953332       -0.68460667786915
N           74.87981690297045       -1.41204275475017       -0.40709407847528
C           73.54633780449836       -1.21638956672754       -0.34009635192184
C           72.88697363413085       -0.01789376362609       -0.00175906956111
C           73.50645029432442        1.19875194676900        0.34134976484678
C           72.84823656658277        2.41170007239420        0.67519463006733
C           73.80276254720563        3.35232864947614        0.94539521072377
C           75.07668002166903        2.73705823598047        0.79996083848463
N           74.84591610245820        1.43871925586695        0.42867134106996
C           76.33004425455238        3.33424696289485        0.97126553666846
C           76.33905393924223        4.76154624273754        1.37031702906000
C           75.77488822999139        5.18573586895458        2.57292910411032
C           75.81061818726967        6.53262752120583        2.89822819504996
N           76.35629234050867        7.45402815137891        2.11103857457089
C           76.89507466390499        7.05842427828520        0.96210138818687
C           76.91313485092502        5.73461093678774        0.55268496917751
C           77.55887870889826        2.69021943231077        0.79656056470216
C           78.85066701226177        3.31505952860351        1.03679046423746
C           79.78281853205146        2.37599715355051        0.77921834139775
C           79.06161132128024        1.17679255162864        0.39004166316277
N           77.72498002036134        1.40095556257115        0.41796457197463
H           80.78149312040080       -0.00415155947713        0.05709524330408
H           80.84510620997179       -2.52230662395551       -0.74709044782266
H           78.98971899893381       -4.36218403240116       -1.31407650139529
H           77.03093676937547       -0.79998557729813       -0.18011645112986
H           75.30319047287310       -4.40531538246923       -3.28684532710187
H           75.33121981075735       -6.80593820898716       -3.93497577188048
H           77.22009487853390       -7.87986773938808       -0.44638303831293
H           77.26158499297691       -5.52891950924603        0.36135881685111
H           73.63472420936448       -4.39411064653443       -1.23040088249854
H           71.76513083319485       -2.53850254982135       -0.71149435856648
H           71.77892352747217        2.54145827916826        0.70350161094450
H           73.64112256314762        4.38287301743378        1.21604467388391
H           75.57623531974393        0.75916946762120        0.24287303122900
H           75.33056836058176        4.46887522461746        3.25321711918089
H           75.38206071456683        6.88605825040267        3.83154380587143
H           77.33137304460685        7.83430308977980        0.33979934927015
H           77.35285565408827        5.45971728355775       -0.39862762889307
H           78.99803681822385        4.32968381110209        1.37009692851746
H           80.85672389165484        2.45435293281919        0.84429112755102
C           48.41128966525302       -0.01986046070597        0.00783745937153
C           49.62812358945197       -0.02371220660620       -0.01329095513434
C           59.32366021698846       -0.00202527249462       -0.05958701006728
C           60.54199725106300        0.00187011495171       -0.05082900388244
C           70.25905374475130       -0.01735805984686       -0.00343489435893
C           71.47643869306955       -0.01915749303247       -0.00180953581012
C           51.03621350613821       -0.02517675557673       -0.03592155995050
C           51.66862160025283       -1.25472246765700        0.22807152602148
C           51.03363714137378       -2.47726151359339        0.56638319411053
C           52.00349866040997       -3.43289425428269        0.70274623665259
C           53.26008710563260       -2.82089471701827        0.44483919477946
N           53.00859513309054       -1.50139742861880        0.18103338249573
C           54.51950716324800       -3.43347225352120        0.44555324292388
C           54.54181353687443       -4.89633417505166        0.68090005436505
C           55.23864979395229       -5.44244722818390        1.75884728580443
C           55.22907130140613       -6.81554286563372        1.94491498426577
N           54.58536199731215       -7.65159935461598        1.13639812416481
C           53.92165555493380       -7.14033177621830        0.10471808664148
C           53.86806986469388       -5.78098114556268       -0.16080714858744
C           55.73950128922064       -2.78416864694051        0.24759783292660
C           57.01327584700985       -3.47338402300349        0.15017636424058
C           57.95320933649959       -2.51723846882004        0.00006626258983
N           55.92483136017201       -1.44058829038927        0.12682320316262
C           57.25445037120591       -1.24818627284872        0.00545791502469
C           57.91616590186052       -0.00508874821614       -0.06799557192354
C           57.28026279469015        1.24965044499559       -0.14850040120425
C           57.91154151487817        2.51938731685983       -0.16753880274759
C           56.94106947008594        3.47228117949358       -0.31608069672786
C           55.68636150678251        2.80974060266088       -0.39398103035262
N           55.93988289817596        1.47030032795081       -0.26627937100201
C           54.42838181993528        3.39920298107106       -0.57260293113507
C           54.41461945193902        4.86359751450961       -0.79858088618927
C           53.72866403886750        5.72480156443700        0.05750750066486
C           53.74635015990243        7.08691441732836       -0.19734976991110
N           54.38748779512824        7.62250417910524       -1.23125133741798
C           55.04199388261374        6.80897497504972       -2.05363404591864
C           55.08746085623869        5.43495607288909       -1.87863500378367
C           53.20568738799668        2.72596241121393       -0.55656784678127
C           51.92735176040963        3.36034457582042       -0.82473415273549
C           50.98733451452787        2.40520788676286       -0.66960426019213
C           51.69258436144663        1.18916842467462       -0.31645880461233
N           53.02349517693114        1.40575820755544       -0.27977505239125
H           49.97099720573597       -2.60112865211534        0.69751731208613
H           51.86253497425306       -4.46742592600106        0.96980432838179
H           53.72218791419208       -0.80716339705793       -0.01376070053945
H           55.76717370324038       -4.79796763585691        2.45112041622611
H           55.76057369911638       -7.26290611861620        2.77976051363327
H           53.40909304107780       -7.84848780390316       -0.53979454516780
H           53.32531696374231       -5.41192578966817       -1.02299651571590
H           57.14687537769721       -4.54270186061206        0.17344015960043
H           59.01710020997305       -2.63699063325837       -0.12238221209402
H           58.97220151885319        2.67916095773178       -0.06848307085341
H           57.08002728021240        4.54027026516885       -0.35468532405470
H           55.22782842404335        0.74780020470015       -0.25997683558936
H           53.20232992733393        5.33429767180838        0.92021593413156
H           53.22227642465158        7.77732984253321        0.45697696292999
H           55.55409822017747        7.27557504414539       -2.88999967025335
H           55.62339665871722        4.80966920120839       -2.58285956159802
H           51.79052081180642        4.39103258744205       -1.10889792728123
H           49.91971707107287        2.48751898715477       -0.79379642059534
C           61.94944860261152        0.00067037542064       -0.03755025635965
C           62.57754694646768       -1.20215513284971        0.34145155735458
C           61.93785622730736       -2.39319133442743        0.76956563836211
C           62.90497423409025       -3.33207309273998        1.00305192260193
C           64.16600052991804       -2.74048017502733        0.72082604434221
N           63.91863046823273       -1.44852983921025        0.34106515401507
C           65.42336365673653       -3.34812175924464        0.82219138227231
C           65.42669888864553       -4.78534880043891        1.18744851731293
C           66.04386934499502       -5.23723396894177        2.35331316147412
C           66.01780341901781       -6.59064496254197        2.65060068172246
N           65.43051800355551       -7.49262032243037        1.87071808644292
C           64.84131220268755       -7.07071891703553        0.75663533170625
C           64.81027829315489       -5.73815075397004        0.37688135070884
C           66.65350498303900       -2.72322524257018        0.61227968998348
C           67.92994682956810       -3.41157186075014        0.68451217476034
C           68.87871912307543       -2.48046188891058        0.45704718477416
N           66.84749759234047       -1.40789332946622        0.31988811775001
C           68.18227696475772       -1.22962244286981        0.23242740441544
C           68.84953058995639       -0.01163345134415       -0.00349062624115
C           68.22381233815564        1.22801920427289       -0.23628670254309
C           68.86672469904521        2.47418171289446       -0.44985574502588
C           67.89981416398331        3.41736912353029       -0.66649395142228
C           66.63597559484339        2.76971288238912       -0.60826671805918
N           66.88180396200852        1.45153799319514       -0.33147714792191
C           65.37765174005389        3.35191020205781       -0.80415162601873
C           65.36446967555101        4.79848172676315       -1.13007004702618
C           64.72535837961597        5.71623974179950       -0.29666412628246
C           64.74166934692637        7.06053161632861       -0.63255709079077
N           65.33808162955863        7.52669667690409       -1.72524043270688
C           65.94498283255710        6.65847440892761       -2.52774643295898
C           65.98787170257243        5.29645924444999       -2.27358963073114
C           64.14979137628706        2.69311870147537       -0.72295240085333
C           62.87962529638475        3.31942952604358       -1.04246968360129
C           61.93099160857209        2.38192010745519       -0.84010486758517
C           62.62045406412652        1.18758914357926       -0.39642250131486
N           63.95258878468139        1.39660984368320       -0.35702058211446
H           60.87417376666401       -2.50792373277216        0.89493896700354
H           62.75966615219958       -4.34130275736303        1.35189014318346
H           64.63382968252300       -0.77195237521484        0.09640590361475
H           66.52384560553989       -4.53613650698028        3.02556006223292
H           66.48804735314555       -6.96589329119344        3.55480287217005
H           64.37313081951581       -7.83135280259176        0.13869543678347
H           64.32848763132324       -5.44190294672984       -0.54738876877556
H           68.06106335292532       -4.46456425853573        0.87331090678093
H           69.94892782440517       -2.60500723969797        0.43963133609748
H           69.93358831462844        2.62482723591489       -0.43930486246310
H           68.04849553937107        4.46946185058992       -0.84628913707301
H           66.16500524175814        0.74316810592632       -0.21442365021942
H           64.23540983431258        5.38217688167701        0.61013655452892
H           64.25490866702306        7.79415027102967        0.00337137956831
H           66.41965871712357        7.06902187198608       -3.41416215304789
H           66.48375445549117        4.62513596463888       -2.96459701620862
H           62.75419118958440        4.33105172779761       -1.39275780523464
H           60.86639059164051        2.46356188878862       -0.98555441891853
