262
 energy: -458.286108485484 gnorm: 0.000682632722 xtb: 6.5.1 (b24c23e)
Ni          39.84876187604878        0.01631665558312        0.03657087333446
C           36.46227407126363        0.10949005888885        0.13021926290207
C           37.12097136634493        1.12103987507852       -0.53818416776795
C           36.45642289722870        2.18045776431419       -1.23261556637863
C           37.42090903714315        3.02977352541149       -1.65976593306539
C           38.67327282281236        2.49702368194500       -1.21007410910577
N           38.48167526096901        1.30136610243251       -0.56404631655905
C           39.89248407836067        3.15081608721010       -1.34922703447004
C           39.91382634960861        4.50468913914938       -1.94782171653254
C           40.65853497637669        4.76174904605276       -3.10169668395525
C           40.67954204149438        6.02480313456869       -3.66568187908548
C           39.96449738091620        7.06927895118592       -3.07367361139194
N           39.95234736610364        8.32449786768769       -3.65587138697984
C           39.21447048214235        6.81958701841699       -1.92139911350316
C           39.19052917686562        5.55105307134557       -1.36987837285364
C           41.09177953719691        2.58216876803006       -0.93813888782036
C           42.35409192432444        3.25433962323087       -0.99298699316917
C           43.29489162711798        2.35413047435640       -0.61685095569164
N           41.25504335034921        1.29299679487913       -0.48231699307327
C           42.60491115048515        1.13893558251810       -0.32464539833701
C           43.25626939708341       -0.05959256863313       -0.01636562452181
C           42.56259720850463       -1.23144619497020        0.30170252281400
C           43.20597031715420       -2.48018335824812        0.55575058244633
C           42.23659337805233       -3.34528833041568        0.94190108238091
C           41.00472942209056       -2.61660783475723        0.93703401618363
N           41.21223201386349       -1.32863571775797        0.49551757007742
C           39.79617218442036       -3.13297012639708        1.38812779698398
C           39.77270755912498       -4.49440961695465        1.96897462835789
C           40.55454475575658       -4.80674724013352        3.08407092000206
C           40.53049154212035       -6.07563772447069        3.63459862733411
C           39.73017890963857       -7.07108563116153        3.06779890506991
N           39.67309676815558       -8.32993291982801        3.63921649880332
C           38.94265594916548       -6.76595324346821        1.95450471270063
C           38.96504776106883       -5.49166811626211        1.41634278749963
C           38.60781295056172       -2.41410029665032        1.31774102807561
C           37.35451079935166       -2.88331754415365        1.83112215011701
C           36.41773136276772       -1.97276359620643        1.47431028836953
C           37.10067266269169       -0.94219535550221        0.75476876639181
N           38.44820150109145       -1.19961162277644        0.69902226500551
H           35.37937105858412        0.14051346254477        0.16279389978400
H           35.38855102976446        2.24740204946778       -1.36793991547137
H           37.30689833294968        3.93631225643796       -2.23168156321075
H           41.20963264334140        3.95450290007104       -3.57166815661838
H           41.25193835710122        6.20923957199760       -4.56821026605947
H           40.73748871476177        8.52465994190933       -4.25461246373709
H           39.70999557030745        9.08023668321156       -3.03529950048484
H           38.65500250451093        7.62544779972163       -1.45897637397957
H           38.62115359700866        5.36994264537285       -0.46473796636893
H           42.49281714003841        4.28482365046935       -1.27669714419826
H           44.36216162236516        2.48629667433746       -0.54085476940621
H           44.26386114054876       -2.65739962554304        0.44690544998130
H           42.33712987534428       -4.38614206897259        1.20297899393961
H           41.17084005037985       -4.03715609826757        3.53587845654342
H           41.13284533613876       -6.30245921890640        4.50748513728886
H           40.47225264171622       -8.58134700647572        4.19875888082187
H           39.35806164004804       -9.06369478393049        3.02498845654239
H           38.31688263366076       -7.53341116316510        1.51214903671330
H           38.36465038018360       -5.26798824896431        0.54125843638058
H           37.22135483350432       -3.79172410703896        2.39587550373039
H           35.35739782127651       -1.98128261555447        1.67119671058224
Ni          95.53823571363810       -0.01355392217131        0.04268463721757
C           98.92503950429894        0.01193614792708        0.17489981207151
C           98.26538004440341       -1.10238967241591        0.65117695904280
C           98.92942980889100       -2.26444088077420        1.15607548062657
C           97.96449379951811       -3.08751193615702        1.63082430157928
C           96.71222013439463       -2.41969488400125        1.43002055784104
N           96.90448400777836       -1.22298047497260        0.78623691176341
C           95.49184998852478       -2.89809513724417        1.89379961861223
C           95.46977037613689       -4.14335922755773        2.69418166523230
C           94.73061437001466       -5.25020611844861        2.26914651745738
C           94.70900200679809       -6.41671825694212        3.01250470002766
C           95.41799814228230       -6.49594638575529        4.21406030099786
N           95.42952934777176       -7.67320016961119        4.94106123326880
C           96.16283423860732       -5.39465008931272        4.64417880895613
C           96.18732500118166       -4.23544806647342        3.88946045506675
C           94.29202331820467       -2.24575244281884        1.63787741363123
C           93.02752546812225       -2.66739463698947        2.15908379983744
C           92.08743154188583       -1.86118494849100        1.60855334224716
N           94.13043111505370       -1.15500300047713        0.81291408472667
C           92.77998505594864       -0.94373275495190        0.76188515585194
C           92.13097717960829       -0.02411796358871       -0.06781668336491
C           92.82628287962362        0.89472992213470       -0.85991057964453
C           92.18471039961723        1.80027162301947       -1.75790177877688
C           93.15447236693288        2.60491913654522       -2.25703229497388
C           94.38479894113408        2.19676874891956       -1.65019887302991
N           94.17612592383614        1.11260721227043       -0.82692004064312
C           95.59335752738781        2.85930856952682       -1.82610577270351
C           95.61812927096678        4.09815596492757       -2.63623038449786
C           94.83796572719974        5.20024861712970       -2.27726768841876
C           94.86361570378310        6.36216644599238       -3.02766808703373
C           95.66372342483560        6.44152430960446       -4.17056824179005
N           95.72257018660468        7.61521922980212       -4.90094046102081
C           96.44928506107220        5.34470763419697       -4.53469089864616
C           96.42538311833296        4.19014232436760       -3.77291907566304
C           96.78110236839323        2.40113128899677       -1.26663109544070
C           98.03493838958076        3.08756726611734       -1.37260247277985
C           98.97141898577959        2.28407176889507       -0.81464924138214
C           98.28756546991895        1.11435467259968       -0.35604530952058
N           96.93998462650191        1.21205740492502       -0.60017399846942
H          100.00796743265579        0.02085808012129        0.21836357786294
H           99.99734708423914       -2.41413960739072        1.13902648017570
H           98.07817114635577       -4.06294236768016        2.07523327494400
H           94.18445891305285       -5.19942070468182        1.33353780228852
H           94.14088176193128       -7.27319084164993        2.66623092012568
H           94.64700618358007       -8.28538876084688        4.77415974051800
H           95.66677517542765       -7.57104342086664        5.91483505665792
H           96.71786005053511       -5.45117558031845        5.57423474759331
H           96.75263641631564       -3.37872475944503        4.23977636939025
H           92.88686142784339       -3.47293344037411        2.86118289013486
H           91.01911712578770       -1.87506424214583        1.75287094630737
H           91.12763849860779        1.80662119161246       -1.96988639419003
H           93.05535355142875        3.40169597686578       -2.97603430768193
H           94.22170461487144        5.15001380723539       -1.38624620132468
H           94.26265698629221        7.21520733359597       -2.73206465785619
H           94.92454786832138        8.22166434736560       -4.79939833241185
H           96.03719680167460        7.51070114456803       -5.85225856444847
H           97.07470434138230        5.40131908221070       -5.41894245814838
H           97.02426534018350        3.33693893218706       -4.07235727523497
H           98.16854774884615        4.06167979258169       -1.81433967413582
H          100.03201221711508        2.45144412916641       -0.71330537713012
C           44.65988142589896       -0.08609836883774       -0.03111600696606
C           45.88427673573826       -0.09940811364064       -0.04008392916356
C           47.22708541873670       -0.10911164198035       -0.04876111498647
C           48.45774454317450       -0.10902529896774       -0.05984541643875
C           49.79581317249201       -0.10693649058692       -0.06339770149395
C           51.02651698474591       -0.10019620467345       -0.06660184817422
C           52.36918791113878       -0.08984019423724       -0.06394562983299
C           53.59377223757730       -0.07887966565013       -0.05746987253833
C           63.22687514951334       -0.07651496133119       -0.09308409369436
C           64.45138919091262       -0.08193521809275       -0.11422731279500
C           65.79399385545118       -0.08294914397416       -0.12884582842505
C           67.02480447741921       -0.08153476816901       -0.13091492639939
C           68.36277969001310       -0.08030345985365       -0.12768787319198
C           69.59357553099929       -0.07276743378287       -0.11905529337643
C           70.93615716698923       -0.06736910714752       -0.10366093456822
C           72.16059828708552       -0.05610166583878       -0.08313838892163
C           81.79378880276901       -0.04406091474579       -0.09064803871039
C           83.01797961951507       -0.04483571832399       -0.11882141326894
C           84.36077498462376       -0.04624987090188       -0.13968906324588
C           85.59131142945154       -0.04175366099765       -0.15430184612204
C           86.92962153851563       -0.03695672642800       -0.15556359257450
C           88.16016051299256       -0.03139700851028       -0.15002604389456
C           89.50312237931897       -0.02732383378359       -0.13039550805192
C           90.72725648047081       -0.02527177496769       -0.10642286100467
Ni          58.41093942583240       -0.05824287048809       -0.00889357188088
C           54.99723930130731       -0.07129318290603       -0.04557281590303
C           55.67053343792201        1.04483815744956       -0.55227138287042
C           54.99802309746394        2.18967995712530       -1.07651338586885
C           55.95005173450257        3.12468187040139       -1.31325045483313
C           57.20412870739367        2.54160545952891       -0.94665210366000
N           57.02160364406292        1.25084557930270       -0.50285136899025
C           58.40646332988063        3.23735067399701       -0.93164898700042
C           58.40329927094386        4.67158116539839       -1.31002881298130
C           58.07950993674442        5.06606651484659       -2.60955794208658
C           58.07511648681218        6.40415394850591       -2.96259999874406
C           58.38207188409739        7.38124471088517       -2.01219514538766
N           58.41494125984624        8.71757100849102       -2.37081198265852
C           58.71386619411052        6.99258860169440       -0.71176057786153
C           58.72494256417124        5.65192921703778       -0.36927836365662
C           59.61294565566687        2.64481253726664       -0.58230181090481
C           60.87007006450567        3.32786953896321       -0.60730665212345
C           61.82711152098199        2.39716298924077       -0.37450233616052
N           59.79891883955711        1.30755821252691       -0.30946916696935
C           61.15327294858311        1.14951767017024       -0.20938549429401
C           61.82374461748156       -0.06901420322971       -0.06042782531992
C           61.14861043721120       -1.27854518477031        0.13337592857228
C           61.81363162824847       -2.53438813037467        0.26660479122282
C           60.86012601248120       -3.44835036665217        0.57198253311829
C           59.61630975115705       -2.74425806668414        0.63201102990688
N           59.80023245143053       -1.41727471270232        0.31436946067311
C           58.41393284539197       -3.32459261249218        1.01798817344981
C           58.41672023518875       -4.73336182534693        1.47177632058024
C           57.64233896073560       -5.69485673197074        0.81722731152591
C           57.64270825889760       -7.01254897807144        1.23800689490283
C           58.41102234985677       -7.39667561851291        2.34032052597578
N           58.44262792481895       -8.72014835613915        2.74109212337472
C           59.19302289320350       -6.44231017753715        2.99658040202850
C           59.19472636924748       -5.12870436621026        2.56301349484166
C           57.20767147009787       -2.63521930848282        0.98432099073001
C           55.95870853658977       -3.18818618924388        1.40965750001811
C           55.00098200302887       -2.28240442419729        1.09306976307998
C           55.66953429975151       -1.17260006217998        0.49475949892099
N           57.02184341232573       -1.37223598580705        0.46802910161810
H           53.93196571704973        2.26145579796622       -1.22021994726760
H           55.82085606727494        4.12700223089870       -1.68750453612782
H           57.84742529568466        4.31271703470187       -3.35435708884991
H           57.83195174426489        6.69891626499559       -3.97756274739204
H           57.86410470165016        8.95527296861115       -3.18024391977666
H           58.31519681651065        9.36636128453610       -1.60646528453074
H           58.95870996787234        7.74618162301489        0.02873105516943
H           58.96804045511882        5.35797574003513        0.64593546889307
H           60.99677643453624        4.38038098993131       -0.80104568988568
H           62.89638363116062        2.52663710934484       -0.32843128893251
H           62.87425174124236       -2.68215755838052        0.14213423167196
H           60.97905886646022       -4.50690938439311        0.73562113762636
H           57.05123496942802       -5.40693505950058       -0.04525889270136
H           57.04604844808356       -7.75176030732450        0.71481707527772
H           58.73462599534958       -8.87192783860058        3.69322289918864
H           57.64416658069691       -9.26945154388815        2.46617982993773
H           59.79499049915488       -6.73529394493117        3.84978683620872
H           59.78981337392468       -4.39032769511181        3.08920673827560
H           55.83814286334785       -4.14459884881348        1.89153907775216
H           53.93600578305357       -2.34531842995963        1.24838410101695
Ni          76.97714175351801       -0.02758928360084       -0.00264908536304
C           73.56394906333135       -0.04704557475720       -0.05958351620257
C           74.23812381551592        1.07548006907824       -0.55099935123464
C           73.56573177548287        2.22436124038038       -1.06699880339321
C           74.51732702163198        3.16196988721427       -1.29399530860157
C           75.77121631322919        2.57653399484149       -0.93025473476607
N           75.58867104853363        1.28243647311856       -0.49555764091763
C           76.97351735310876        3.27158004933586       -0.91446336221657
C           76.97470305449139        4.70374146342440       -1.30048623550081
C           76.65241071962355        5.08933081087920       -2.60311551399458
C           76.66332356158571        6.42370267829312       -2.96957890992720
C           76.99647071473319        7.40541483584225       -2.03284617923839
N           76.96287346826175        8.74390411563877       -2.38294381219447
C           77.30677788909688        7.02721090327761       -0.72404503762751
C           77.30246226985616        5.68996909835334       -0.36809156028392
C           78.18001671486891        2.67783369863583       -0.56615040253466
C           79.43722025854107        3.36067955297642       -0.58927618519845
C           80.39411726777692        2.42918688543726       -0.35880122811883
N           78.36550297270759        1.34010682401412       -0.29666363039822
C           79.71997995110179        1.18130074901335       -0.19767856426362
C           80.39047207667574       -0.03753080228099       -0.05315787368378
C           79.71599963696553       -1.24711891718473        0.14058284169120
C           80.38163442266763       -2.50232723271858        0.27532969671905
C           79.42830718933921       -3.41646360411557        0.58103782369289
C           78.18393116796025       -2.71317515059268        0.63864632684333
N           78.36733959401425       -1.38659664325563        0.32058947940832
C           76.98075222923060       -3.29559852347204        1.02022342502316
C           76.98860990851135       -4.70299360977640        1.47844961072363
C           76.22382997087854       -5.67279591862988        0.82509200068283
C           76.23617114744320       -6.98969465857987        1.24851931373605
C           77.01654875070926       -7.36700444616300        2.34469510591717
N           76.99382650533866       -8.67240111997674        2.80118250733807
C           77.77476049668080       -6.40056637601346        3.01116850203362
C           77.76450644609753       -5.08794350081586        2.57504229533088
C           75.77302317197982       -2.60991832272029        0.97768469626775
C           74.52191971098759       -3.16760282055006        1.39074114802242
C           73.56425997115232       -2.26465637443827        1.06644257329189
C           74.23474800858283       -1.15082667581177        0.47751446898287
N           75.58774045049553       -1.34632420708992        0.46172807154444
H           72.49990450721079        2.29655538191248       -1.21194747039402
H           74.38814291659800        4.16760878872480       -1.65913112351872
H           76.40985056717524        4.33140416984902       -3.33990262103303
H           76.41770756924224        6.71148473158090       -3.98596020189084
H           77.06023973989846        8.92930832304762       -3.36840332758734
H           77.51358792128147        9.35161000689775       -1.79779822977113
H           77.55288516979785        7.78583753744048        0.01085163189011
H           77.53870373207246        5.40377407066779        0.65094353048934
H           79.56432704674275        4.41379820834641       -0.77956741792899
H           81.46336505526948        2.55846913981786       -0.31150293903610
H           81.44247327269173       -2.64971934037041        0.15210913713922
H           79.54774768593238       -4.47485479068290        0.74562340799440
H           75.63109210168990       -5.39243061873596       -0.03875577958215
H           75.64378707684325       -7.73470664651872        0.72869160558736
H           77.79156101330655       -8.94753504546196        3.35136311293243
H           76.70954368927171       -9.35891977120195        2.12102854770039
H           78.37186692548694       -6.68459542132221        3.87079185061074
H           78.34867898022692       -4.34203354829333        3.10285086818245
H           74.40010273335335       -4.12511603867080        1.87002137533198
H           72.49808685405867       -2.33116564356468        1.21168318421137
