328
 energy: -631.460480282178 gnorm: 0.000582977524 xtb: 6.5.1 (b24c23e)
C           59.58586134029586       -0.25611843004013        0.10535335028073
C           60.19154976652743       -1.03514146431346       -0.87185109456227
C           59.53552215199582       -1.82485666425223       -1.85753655925546
C           60.49467044725552       -2.43484750910394       -2.61557224928114
C           61.76853065082876       -2.04933493044950       -2.10806198903196
N           61.53423859383177       -1.19588318334846       -1.06718358759901
C           63.03109191308504       -2.44235743217469       -2.56641448582865
C           63.06279407843525       -3.39590172671609       -3.70293846928129
C           63.68880830098919       -3.02749012823631       -4.89718898207334
C           63.70700528346941       -3.91127690383205       -5.96871981945506
O           64.29255968674258       -3.61613013573042       -7.17187712684687
C           63.10990387530148       -5.16421908029207       -5.85517677368869
O           63.11422998932552       -6.05459939966191       -6.89652860645186
C           62.48949116349655       -5.53560648385210       -4.66123362943019
O           61.91495747888436       -6.75888455608923       -4.55911504136376
C           62.46356272783574       -4.65074317060880       -3.58950871721813
C           64.24628238560668       -2.00085973755527       -2.03571789296357
C           65.54393652317343       -2.49241417378227       -2.46292658717981
C           66.46395926407153       -1.83111201108112       -1.73013950900784
N           64.39980569023434       -1.07533311895870       -1.04953647590495
C           65.72747628154188       -0.94095175910329       -0.85392048846025
C           66.36302696944146       -0.05214389282597        0.03590055133775
C           65.72824895408925        0.82074354328691        0.93882489169450
C           66.37141430002728        1.74534748822382        1.80412688863022
C           65.40686461583775        2.37697146876547        2.53906842417189
C           64.14380695030272        1.84879234017512        2.15226854700998
N           64.38939377382263        0.92268271344869        1.17284087498709
C           62.88464416801140        2.19922859558081        2.65100074492313
C           62.84938465443996        3.19702968787137        3.74803334540774
C           63.50496555346444        2.94109361097386        4.95294368141374
C           63.46020536532721        3.87288277343115        5.98334439711240
O           64.08585903683368        3.62936616595249        7.16079211306583
C           62.76503597351089        5.07057121800447        5.80841757283695
O           62.73963555130042        5.97097507117827        6.84085132651884
C           62.11563072697552        5.32866715435116        4.60384536471374
O           61.45876316616425        6.52709072358298        4.50424976892046
C           62.15224663695827        4.39621651479109        3.57485907449632
C           61.67101348702268        1.67463931200012        2.19215613400881
C           60.37218467024468        1.99065351599921        2.76612994980875
C           59.45978266792940        1.30319245394093        2.04983225931407
C           60.20047173587553        0.55918685918488        1.04672923633852
N           61.52921008509339        0.79817469218846        1.16984877757814
H           58.50124652519295       -0.29209456003094        0.12635813674594
H           58.46544159045529       -1.90138885518309       -1.96658873150911
H           60.33890090487976       -3.09041844614003       -3.45681687764748
H           62.26218041911721       -0.74809113219767       -0.52054864000966
H           64.14193720474317       -2.04825988385913       -4.99780626586501
H           64.68364794357907       -2.73276149210603       -7.15606058695559
H           63.58235639340475       -5.64257710393917       -7.64010830726623
H           62.03864610878757       -7.22557225940338       -5.40212497690513
H           61.99447320404453       -4.95694701556440       -2.66338212103563
H           65.70687525088429       -3.25365134177916       -3.20872706222963
H           67.53801638331512       -1.92355350992119       -1.75643746074207
H           67.43697343267880        1.90343143075509        1.84759026715202
H           65.55359614461909        3.14643415192900        3.27928239286741
H           63.66793748412475        0.39135235319190        0.69658799491614
H           64.03122034475774        2.00797414837296        5.10746701107878
H           63.93400022863699        4.38712395131062        7.74941429657286
H           62.21393747564582        6.73588196306209        6.55734053571051
H           61.03362575738632        6.61511537652529        3.64110298099223
H           61.65644561744873        4.61023059331182        2.63533612196240
H           60.20620000472027        2.63878446400097        3.61164487248879
H           58.38813755148728        1.27468427429776        2.17077363748604
C          120.12508887547169       -0.09238807539123        0.23698297910563
C          119.51650966389913        0.69279375353711        1.20738088341196
C          120.16999543136625        1.47518216136519        2.20048869569038
C          119.20900372175029        2.09310947451189        2.94968828474564
C          117.93630664748807        1.69786638914182        2.44676017058525
N          118.17335542466222        0.86307645074999        1.39154485108579
C          116.67328249184308        2.08580001773394        2.90822056686598
C          116.64304246994452        2.98736292358406        4.08678688040095
C          116.05254047537274        4.24974744991091        3.98220385999247
C          116.03566305307790        5.09728293436162        5.08282579354044
O          115.48309893853255        6.35092063345497        5.05296618666453
C          116.59949790617766        4.69185063030109        6.28985518555719
O          116.59551936651242        5.50841267953554        7.39024248633490
C          117.18542390891582        3.42954349118079        6.39683854270369
O          117.72840493167129        3.04245839355046        7.57690294305332
C          117.20940035613076        2.58170028009343        5.29568157578246
C          115.45862818180476        1.68495522300624        2.34545588297596
C          114.15834873927355        2.03792186235685        2.88667898438274
C          113.24012540135482        1.46182486236308        2.08333796835027
N          115.30768379136723        0.89755716054261        1.24534761472660
C          113.97999936156030        0.75133761566786        1.05834771110520
C          113.34648515879120        0.02066034914579        0.03354984803997
C          113.98175674215099       -0.72398451359008       -0.97712656500707
C          113.33867248081204       -1.41361316992783       -2.03952665265985
C          114.30523527825490       -1.99731813802470       -2.81025480917746
C          115.56992020901387       -1.69243790975022       -2.23420613824102
N          115.32232353514345       -0.91392406588599       -1.13410910359051
C          116.83204934462277       -2.08107532593017       -2.69502000041394
C          116.87332992262128       -2.93844720081691       -3.90522414401309
C          116.25563379823160       -4.18938021125101       -3.90604811262245
C          116.30675900194750       -4.99168738254095       -5.04008425225490
O          115.71829083397307       -6.21246791174334       -5.04772294795145
C          116.96981642606116       -4.54029896080925       -6.18245338815827
O          117.00195712039724       -5.35184285208076       -7.28591462092938
C          117.58162249613659       -3.28932924576210       -6.18334976688477
O          118.20879810667039       -2.91240067810267       -7.34194053967049
C          117.53917892846947       -2.48861103699969       -5.04905781683152
C          118.04558848775957       -1.72111861936602       -2.09812508945325
C          119.34746575695485       -2.19677579790683       -2.53994679954066
C          120.25805823632005       -1.64044091500023       -1.71570866040638
C          119.51358346966521       -0.83195780868925       -0.76676585777656
N          118.18449072455763       -0.91131642048585       -1.02197264958019
H          121.20949176467488       -0.12291815250721        0.27256427162731
H          121.23981156708672        1.55242626234805        2.31166674162241
H          119.36278799769661        2.76951202882255        3.77466478384951
H          117.44713436288897        0.43418537183448        0.82771180813400
H          115.62588758304290        4.57828737670885        3.04180487240587
H          115.11109442503233        6.54148648978553        4.18186621734056
H          116.15215768016240        6.33640019103934        7.14603594938195
H          117.61097671622277        3.76303203364731        8.21774809493781
H          117.65134178027203        1.59872967468748        5.39567412439978
H          113.99168857519088        2.63037734322669        3.77177922709823
H          112.16503719054700        1.49151816419818        2.16137660701989
H          112.27177208035097       -1.44544671239729       -2.19110221681541
H          114.15887284626302       -2.58150768750023       -3.70399664799233
H          116.04400522159447       -0.53188385938781       -0.53173895591633
H          115.75447136701668       -4.55818364615713       -3.02043724366060
H          115.86600629087809       -6.61727003465547       -5.91838473316159
H          117.50050172837291       -4.89241867192765       -7.98030636697488
H          118.60632080827317       -2.03680785488336       -7.24808188173020
H          118.00612859232439       -1.51076596945838       -5.06132433413266
H          119.51632586341493       -2.87686978127538       -3.35938977509027
H          121.33091185122194       -1.75381055347769       -1.71935516642497
C           68.99207969406207        0.00204470336434        0.02519684041511
C           67.77052357208917       -0.02215629671289        0.02865655133615
C           70.34260574647725        0.01755221751848        0.01914272509201
C           71.56445628024134        0.02918588885709        0.01427935155891
C           82.45126782352750        0.01653457814501       -0.00345707138902
C           81.22838880259171        0.01601753043022       -0.00410101001879
C           83.79964519495519        0.01100300181395       -0.00052463263238
C           85.02260197623841        0.01085781884342       -0.00578782185100
C           95.90934213195685        0.01397641383452       -0.02727207129900
C           94.68646842324560        0.00180825038134       -0.02503225202669
C           97.25765890548180        0.01996092998434       -0.03157404652811
C           98.48052146204336        0.03022085061929       -0.03444686980741
C          109.36592207046081        0.03735500134644       -0.02344656791476
C          108.14414875745587        0.03695798436551       -0.03143945746855
C          110.71681299850239        0.03224735020184       -0.00992142896476
C          111.93840599402512        0.02941677304188        0.00683100549284
C           72.97144620665451        0.02916118261894        0.00783237900429
C           73.59325639727918       -1.23279166432334       -0.04438018010582
C           72.93854358254660       -2.49141116979151       -0.04992258261552
C           73.89865568307678       -3.46488480843769       -0.10210193432393
C           75.16840982643812       -2.82739314694861       -0.14058488419299
N           74.93302927142646       -1.47910639838589       -0.09578896468358
C           76.42571247792645       -3.44274166665343       -0.19246466777125
C           76.43248459116357       -4.92533638311225       -0.26043198697654
C           77.03508828989702       -5.67123526481854        0.75314067756769
C           77.03988873158985       -7.06282453794164        0.71287230365060
O           77.61308593638734       -7.79951596606159        1.69966032607585
C           76.44202365311530       -7.72769549068145       -0.36276055871825
O           76.43354094609295       -9.08393040458206       -0.43291052354734
C           75.84596743593710       -6.97351957686267       -1.37700680547567
O           75.28306551039326       -7.68604418753779       -2.40441606738895
C           75.83041558658286       -5.58634470866964       -1.33280857808643
C           77.65245476787274       -2.77702248082145       -0.18118615474749
C           78.93644692034694       -3.44321533748771       -0.30412613193841
C           79.87609066644910       -2.47631164275737       -0.24996004267131
N           77.83321644304607       -1.43097839455636       -0.07507654816251
C           79.16454180401237       -1.22216230832719       -0.10339095305909
C           79.82398768935631        0.02020328406905       -0.00284245387260
C           79.20173522990629        1.27984236326589        0.09743807179326
C           79.85625508884947        2.53191887344045        0.22822051352161
C           78.89611626768915        3.50500383044706        0.28352826094382
C           77.62623866096459        2.87479915691469        0.17882398644148
N           77.86216874305957        1.52925987083137        0.07787097875682
C           76.36926463105556        3.49105024389662        0.19593220744546
C           76.35924695345028        4.97355534386010        0.28095024136684
C           76.94790906272057        5.73822218403159       -0.72650829678395
C           76.93005611283300        7.12602304123670       -0.64912678704246
O           77.49043796384706        7.87820175173166       -1.62735342320453
C           76.33064751602288        7.75388430372981        0.44394143924135
O           76.33126729047957        9.12301757367126        0.49501160854306
C           75.74837385151687        6.99008851791135        1.45237704066984
O           75.18457076769529        7.67664037800336        2.49539473151469
C           75.75694049540273        5.60309574184280        1.37361912582746
C           75.14178061056460        2.82758246235063        0.13945757391449
C           73.85716649228729        3.50319694699408        0.09741973979201
C           72.91725720917516        2.53626089945320        0.05139689994378
C           73.62894098188838        1.27376053230035        0.05337436073336
N           74.96149255722949        1.47902243166967        0.09817431647593
H           71.86975514308477       -2.62648308294409       -0.01006784941014
H           73.74212910443239       -4.53120204967279       -0.10261340735539
H           75.65819198379533       -0.76961684699627       -0.08808028435493
H           77.48949668708974       -5.16611789955970        1.59799154367110
H           77.99075166422699       -7.23202940125032        2.38439716812057
H           75.97456629360217       -9.34305080544221       -1.24817650990524
H           74.89819995349164       -7.09445942443375       -3.06391627717387
H           75.37363000949659       -5.02462066539851       -2.13919072804149
H           79.07802998929223       -4.50435385033765       -0.43047194989343
H           80.94817745148812       -2.57530532304509       -0.31008873668056
H           80.92523594936799        2.66209528460412        0.27853377529175
H           79.05176224844860        4.56556465104780        0.39500199310883
H           77.13742080574033        0.82308225016612        0.00536071107598
H           77.40146889612213        5.26271920969022       -1.58656822850678
H           77.37293849666516        8.81476322618508       -1.39755721695033
H           75.87578256175468        9.39200479352703        1.30865505432111
H           74.80026443365962        7.06802615862878        3.13996396979809
H           75.31285938890301        5.01462754243630        2.16781509150191
H           73.71490005115785        4.57172651498425        0.08834564197473
H           71.84486880990323        2.64078965728653        0.00838077744135
C           86.42681723106951        0.00762699389131       -0.01068494278860
C           87.05054918116917       -1.25565197208735       -0.01269745007019
C           86.39811342399008       -2.51440403038825        0.02657660411199
C           87.35963935495705       -3.48780172058728       -0.00732667947511
C           88.62755275172739       -2.84989765111857       -0.07804627536047
N           88.38994753726786       -1.50100443065124       -0.06745009009606
C           89.88503373813661       -3.46477353621505       -0.13375103058718
C           89.89310091913818       -4.94809138711260       -0.17959146176862
C           90.51392934262832       -5.67939147631947        0.83364115714099
C           90.52362960136007       -7.07134753492923        0.80989872229185
O           91.11503174462732       -7.79400377647257        1.79634687262997
C           89.91239958644277       -7.75146144294891       -0.24857095224067
O           89.90936995130666       -9.10833036285688       -0.30284095678756
C           89.29748867405225       -7.01188312470827       -1.26239888165715
O           88.72257482093096       -7.73891085681384       -2.27263564608948
C           89.27671964402680       -5.62440703828605       -1.23426115436065
C           91.11143604279661       -2.79813170880888       -0.14939025143015
C           92.39465692767102       -3.46505594116371       -0.27613621166685
C           93.33424491056765       -2.49701190353260       -0.24320068496203
N           91.29223526813026       -1.45062250490323       -0.06462506513349
C           92.62332210458723       -1.24159390465104       -0.10709244847545
C           93.28222377288445        0.00217192621439       -0.02383422122131
C           92.65852284185021        1.26242950349058        0.06154536661508
C           93.31151608988175        2.51596038440957        0.18233995004503
C           92.35041028834421        3.48923029110817        0.21837203893479
C           91.08202719896762        2.85720928519160        0.11037735656161
N           91.31897858794487        1.51071420434600        0.02964126136659
C           89.82446747550074        3.47372760049340        0.10146104253221
C           89.81576967524545        4.95719179488337        0.16198587008260
C           90.42778087861770        5.70509912314261       -0.84421609490358
C           90.41829376149984        7.09381251836024       -0.78464638323362
O           91.00336207108111        7.82948904616370       -1.76082371757225
C           89.80323154757885        7.73957166615271        0.28920518195014
O           89.81466573384131        9.10904120802083        0.32428421207157
C           89.19573313362449        6.99258005072000        1.29534164787767
O           88.61753370074351        7.69602764020110        2.31910933641719
C           89.19610491558278        5.60470113721504        1.23429965672580
C           88.59820721299010        2.80957661179370        0.04308247869683
C           87.31480265209235        3.48371880984919       -0.03493739679585
C           86.37497079479598        2.51585752369018       -0.06348802729862
C           87.08597188784390        1.25399209861339       -0.01338124622779
N           88.41716682434939        1.45949213307012        0.03866076530053
H           85.32994805730168       -2.64979565705720        0.08048176646064
H           87.20514802675990       -4.55396311572553        0.02440356057273
H           89.11341337659552       -0.79009984564978       -0.08956776325290
H           90.97946547391409       -5.16246553412878        1.66517915555860
H           91.50318925507439       -7.21699111149121        2.46709263011430
H           89.43946757043952       -9.37920411902006       -1.10803151461000
H           88.32719466920052       -7.15709140733147       -2.93462901817682
H           88.80555326352398       -5.07410110250664       -2.04023262409697
H           92.53596677599451       -4.52763274448670       -0.38999276312118
H           94.40582734136424       -2.59599057199351       -0.31194967334642
H           94.37996426682027        2.64749149047218        0.23939597453290
H           92.50514836416579        4.55099960861571        0.31866618157726
H           90.59531299204033        0.80306976299853       -0.03925100123615
H           90.89434536808164        5.21568074709351       -1.68938125211405
H           90.88865676036777        8.76973729276520       -1.54512272164197
H           89.34547401162725        9.39161308673347        1.12543068727049
H           88.21694126735294        7.09809379049104        2.96372368005041
H           88.73346845406593        5.02937399763664        2.02754798593781
H           87.17356402992137        4.55153916488003       -0.07844850204435
H           85.30327355005133        2.61954496969807       -0.12261096724718
C           99.88475239442390        0.03245229355705       -0.03858245737356
C          100.51104066943114       -1.22940310004629       -0.05397308889516
C           99.86150847840702       -2.49011195643227       -0.02202313175466
C          100.82440773680507       -3.46100010849077       -0.07614430669495
C          102.09039753722151       -2.81963466998465       -0.15366614043269
N          101.85021456970678       -1.47137674066277       -0.12371085447810
C          103.34796995454663       -3.42986165214016       -0.23879687258552
C          103.36166747499297       -4.91178322222999       -0.31013397243069
C          104.00860982908739       -5.65603612872542        0.67718315129168
C          104.02519147809835       -7.04727635944270        0.63060967685921
O          104.64137000442000       -7.78251311221812        1.59217733344654
C          103.39477188691554       -7.71352700389018       -0.42549042099406
O          103.39821101339358       -9.06925186279774       -0.50219779602483
C          102.75391252942818       -6.96104978972169       -1.41345458737254
O          102.16149936698939       -7.67487753770304       -2.42301229750309
C          102.72583955431871       -5.57438099048127       -1.36198520812937
C          104.57208591062583       -2.75786581330046       -0.25962653328516
C          105.85509309764257       -3.41671917884770       -0.42709104192112
C          106.79278363934833       -2.44806003254373       -0.37314926846283
N          104.74989982626592       -1.41433359375482       -0.13355820353492
C          106.08112489076242       -1.20008983626414       -0.18178283571862
C          106.73683927721916        0.03798867317055       -0.03708486298383
C          106.11175232093078        1.29099356218595        0.10496837730703
C          106.76132037403558        2.54045199136624        0.27948659696471
C          105.79895156176615        3.51149270127506        0.33063924947541
C          104.53287804846838        2.88283651811884        0.17977161130678
N          104.77206509394345        1.53990288281925        0.06211038011577
C          103.27568091016394        3.49995304773866        0.15949516137062
C          103.26586939091794        4.98220453459973        0.24515195021037
C          103.89818708188245        5.74560192214284       -0.73672614412974
C          103.88725506918473        7.13316844343758       -0.65601831161836
O          104.49151049923496        7.88396248550630       -1.60891956365759
C          103.25061890646407        7.76237344800321        0.41505047750624
O          103.26107541598606        9.13125462563693        0.47125195815251
C          102.62339783884708        7.00007012025208        1.39727732104677
O          102.02494206589451        7.68780060132924        2.42006768199438
C          102.62490691017283        5.61323629914367        1.31467099630192
C          102.05115904925459        2.83641838088717        0.06669144984733
C          100.76797080671000        3.51009694414725       -0.02011263676707
C           99.82972371020135        2.54158199860978       -0.07164075216507
C          100.54166827125850        1.27992238614491       -0.02763217792438
N          101.87188489930193        1.48638082010341        0.04110262038161
H           98.79421800743930       -2.62834658277353        0.04125366299284
H          100.67247217671419       -4.52777661106788       -0.05400105721922
H          102.57225428878102       -0.75898947338585       -0.14368082140589
H          104.48967297899800       -5.14995679537235        1.50655536150117
H          105.04590871304805       -7.21424484757633        2.26073705948259
H          102.91477233532106       -9.32950912392848       -1.30286055318245
H          101.75289639969346       -7.08462040764592       -3.06929948255071
H          102.23448632536630       -5.01380015515431       -2.14859302222758
H          105.99681964016375       -4.47427569291379       -0.58019469614508
H          107.86351385921724       -2.54166418726436       -0.45934612091382
H          107.82862684651292        2.67017428017465        0.35828753164238
H          105.95051999081110        4.56964527818049        0.46765905328372
H          104.05023940640622        0.83484833168261       -0.04296417464110
H          104.38237735754129        5.26916723207715       -1.57938715478155
H          104.37137145597768        8.82072211849768       -1.38134676220612
H          102.77725254044668        9.40159612644854        1.26788891862740
H          101.61269030652758        7.08004846873859        3.04794135200635
H          102.14653727807307        5.02585174498923        2.08954268062786
H          100.62605233022605        4.57825474070752       -0.05237820125564
H           98.75866798804172        2.64459167766176       -0.14291497580327
