140
 energy: -222.316349496046 gnorm: 0.000532865911 xtb: 6.5.1 (b24c23e)
Co          15.56691433300406        0.35341313663712       -0.60152946694978
C           12.47947732808763        0.75806785133883       -1.80145135740554
C           13.04605085150609        1.80580140579188       -1.10422063239696
C           12.35159379025056        3.01904612288173       -0.79598648183637
C           13.11757478272872        3.68898369427470        0.09801701378040
C           14.31624649310730        2.92297878095189        0.27596079036226
N           14.25026965894867        1.76225219004778       -0.44948190818688
C           15.41863805179231        3.33840986070438        1.01412656033419
C           16.63587032721238        2.67675096973415        0.93071497542954
C           17.87499733819775        3.23085689655002        1.38734672976410
C           18.86100751963494        2.43138616516047        0.91106249298712
N           16.86470798864217        1.51333430437167        0.23513531822854
C           18.22058746788815        1.35935308464703        0.21726183036231
C           18.90443201111016        0.25565758798540       -0.30591870337160
C           18.22797430594747       -0.91251728265949       -0.67518049502351
C           18.88005438775183       -2.16667480008100       -0.88502933041474
C           17.90295227626096       -3.10177767017758       -0.98084560125379
C           16.65443520837942       -2.40670258629092       -0.89259135355907
C           15.42119080995976       -2.99928383881032       -1.12971838259838
C           15.35743981086915       -4.47574839410247       -1.23759546404203
C           15.02591785840450       -5.09551376207650       -2.43986600880127
C           14.97217092620224       -6.48400428903476       -2.52710119844197
C           14.59799854234765       -7.13964025579520       -3.82898301072226
C           15.25124710017692       -7.24897184082800       -1.40057836426007
C           15.59310516638239       -6.64335004515077       -0.19309506748118
C           15.90615838435193       -7.49113112941940        1.01015732124913
C           15.64960348019743       -5.25738302066884       -0.11922139461665
C           14.28878396962097       -2.23367259741166       -1.37970908319852
C           13.05412337515078       -2.74932427215831       -1.89490803802053
C           12.28210608775496       -1.68085784046385       -2.20710068735431
C           13.01128796296888       -0.51592475301587       -1.80727680811893
N           14.23326891857234       -0.86620756720378       -1.29495894199009
N           16.87116462150977       -1.06443003187859       -0.69838082106366
C           15.34359477606567        4.58425343761744        1.81364539642428
C           15.11847005702512        5.81515294459399        1.20111396280061
C           15.04856797602455        6.97914416040733        1.96070824955022
C           14.82441362781461        8.30533442630269        1.28564948932250
C           15.20766205041448        6.90353988591047        3.34023971079797
C           15.44313874475686        5.68165404896303        3.96542072360081
C           15.59847361290664        5.61378940794612        5.46059823484601
C           15.51361722037648        4.52579284448425        3.19654941547195
H           11.50645323948821        0.90996547518414       -2.25415318216443
H           11.38263127242216        3.28562490642552       -1.18737721628388
H           12.90394010121082        4.62477568684014        0.58832944839463
H           17.96757392227244        4.13865189942222        1.96124044670559
H           19.92771820068234        2.53194202187217        1.03186988294254
H           19.94899251322413       -2.30363593399254       -0.91796591371297
H           18.00523235498003       -4.16379281889568       -1.13485635120838
H           14.83118315048903       -4.49108839079779       -3.31891605384270
H           14.87876822811777       -8.19272448216027       -3.83136104684134
H           13.51874410844276       -7.07175123021819       -3.98277234177174
H           15.08908125401430       -6.64154055228859       -4.66577767231088
H           15.20797873244922       -8.33158611139980       -1.46154973535682
H           16.03456225804246       -6.87512454154430        1.89992873132128
H           15.10264714189282       -8.20659898549562        1.19192059838057
H           16.82641730701008       -8.05453468915160        0.84316504819205
H           15.90838089061669       -4.77129916113945        0.81506249062265
H           12.82395088785572       -3.79536403692495       -2.01562158362288
H           11.29075148855788       -1.66629030282133       -2.63159656899569
H           15.01768635387419        5.86650386452421        0.12259447212917
H           14.44464510774825        9.04347309716352        1.99201234407332
H           14.11446959964882        8.20480691699424        0.46401523286540
H           15.76574575524690        8.67729277872405        0.87490539191768
H           15.15180909184621        7.80796111770446        3.93733259905434
H           14.61493550300833        5.59187432273736        5.93542185827907
H           16.13406941049834        6.48720688540423        5.83381631593364
H           16.13949780967059        4.71474156132598        5.75570949495563
H           15.68876346767350        3.56627900245257        3.67066081642472
Co          28.84258129977993        0.47566107808200       -0.50494886728178
C           31.93746472929397        1.50540052857111       -1.22350317183861
C           31.37459218125899        0.53531259196256       -2.02776253634462
C           32.07436720247291       -0.11133435690453       -3.09602060049797
C           31.30228387409846       -1.15091043779304       -3.49339914292042
C           30.09636272831892       -1.09315997049442       -2.72037897790306
N           30.16339386377960       -0.07016505670025       -1.81069281792094
C           28.98746096182085       -1.90600693548984       -2.92483504863804
C           27.76851630470631       -1.63384230070807       -2.31957926942268
C           26.52811387435268       -2.21911934647540       -2.73169806784628
C           25.54328726687288       -1.54123099789179       -2.09259951255938
N           27.54147086283560       -0.64626782336300       -1.39053180961345
C           26.18553924333124       -0.58438153245191       -1.24841196184683
C           25.50197646343822        0.21829989256404       -0.32793457731526
C           26.17885855198737        0.89254768369340        0.69444593420969
C           25.52720353224598        1.43454663769183        1.84487137422217
C           26.50510307442743        1.79311271870233        2.71268975802830
C           27.75308390199807        1.52675311838727        2.06338008667343
C           28.98388990731609        1.93389262312386        2.56069402995312
C           29.04486856017732        2.44944268813470        3.94865390862347
C           29.35971540524572        3.78013771472286        4.21189646712331
C           29.40403722615376        4.24889603060117        5.52233303950741
C           29.75697248278049        5.68657267223404        5.79332296151865
C           29.13310936480122        3.37492259440645        6.56865881449610
C           28.80924728632275        2.04256189339986        6.32036081879546
C           28.50413280319210        1.11696074784791        7.46693948570847
C           28.76189481978730        1.58744376470212        5.00896744771816
C           30.11404632751403        1.96761183882421        1.75309167563866
C           31.34388920794423        2.61769792951010        2.09995060547825
C           32.11947752971469        2.60916311042868        0.98937175946126
C           31.39689142072435        1.88394611621346       -0.01103470010319
N           30.17405387085124        1.49216569219874        0.46821491249578
N           27.53568330252907        0.96602747747688        0.82842451766142
C           29.05663654969681       -3.01765382414916       -3.90288495182131
C           29.29441051481896       -2.76941030161560       -5.25302445507336
C           29.35131435840695       -3.81970730050667       -6.16434334821180
C           29.58670544859266       -3.53756942928263       -7.62371789287326
C           29.16712840946504       -5.12291843243326       -5.71511947455805
C           28.92026871567062       -5.38576374975232       -4.37003255238001
C           28.73714506634331       -6.80232458648446       -3.89658167868357
C           28.86276141924485       -4.32881670590721       -3.46916256277372
H           32.91329922612606        1.89236370155826       -1.49332716551964
H           33.04994209640044        0.17924672409829       -3.45238411358331
H           31.51623401218193       -1.88826489836893       -4.24989058894089
H           26.43390050377721       -3.01758122042199       -3.44972404904462
H           24.47629896458473       -1.68223455680374       -2.15744052218436
H           24.45825972250171        1.49476671388902        1.97207197421959
H           26.40326248515304        2.23387169177201        3.69113720165126
H           29.54753457552270        4.46019873026810        3.38834379535847
H           29.47891692594584        5.97271867846764        6.80757215508458
H           30.83304075953222        5.83398456539322        5.67769388422210
H           29.24934315388754        6.34664296623811        5.08894862900674
H           29.16815377600560        3.73408202245909        7.59210623865220
H           28.38255743388121        0.09118192322685        7.11957029522799
H           29.30842792993225        1.14464329156070        8.20376023493982
H           27.58229943021121        1.42602679457059        7.96379200408511
H           28.51623268448449        0.55207922261706        4.79967366691372
H           31.56858603745409        3.03911081722028        3.06624927236216
H           33.10940367199944        3.01562153328660        0.85500024393257
H           29.41423731691873       -1.74800536880708       -5.59707344200562
H           29.95334398049904       -4.42554763827643       -8.13861211390455
H           30.31110202243302       -2.73215700053868       -7.74918057708654
H           28.65247372579445       -3.22835762789370       -8.09786297164925
H           29.21167824558332       -5.94551564350660       -6.42150901583657
H           29.71161885498310       -7.27034908509050       -3.73968141364729
H           28.19542677816949       -7.39073761348720       -4.63776798365899
H           28.18982875615425       -6.83048315392385       -2.95437510411362
H           28.67810929263008       -4.51910148710519       -2.41757399541634
C           21.52894252385961        0.26696408345547       -0.34713986553152
C           20.30637910190806        0.26524028934568       -0.32435266166952
C           22.87730261258785        0.25786416510264       -0.35285283649098
C           24.09996514036787        0.23322379602032       -0.34163291490103
