118
 energy: -211.335671395447 gnorm: 0.000253747085 xtb: 6.5.1 (b24c23e)
Co          16.88605114662348       -0.05536987922518       -0.06072367972126
C           13.52684547865735       -0.10651794004915       -0.37012611681956
C           14.21339841112787       -1.29403787971980       -0.50211196102920
C           13.57640382799165       -2.55694159395775       -0.72079368790631
C           14.52437131392170       -3.50569106343058       -0.53776694026364
C           15.74581599210474       -2.82045028019901       -0.23111989258808
N           15.55414137644629       -1.46273783533369       -0.25846004320997
C           16.91379842445728       -3.45194112050828        0.17770774674336
C           16.91656666237260       -4.92601200245221        0.34041596741986
C           16.73894077684819       -5.76358857935128       -0.76035906585772
C           16.73648951519159       -7.14161569657856       -0.60710299226709
C           16.90691626413211       -7.69651532038472        0.65900389736825
O           16.90442536382449       -9.04019799780677        0.85503760646640
C           17.08679336128419       -6.86966298746231        1.76643216476495
C           17.09469655965033       -5.49573096726971        1.60286444316657
C           18.08195115232716       -2.74641100905502        0.42337936312380
C           19.32831811362549       -3.36159455661755        0.76866517849932
C           20.27836378616016       -2.40042211545896        0.67469568447673
N           18.26545928862569       -1.40553688703487        0.16849741121868
C           19.61162612687191       -1.20121580345109        0.27800725506455
C           20.27914160265443       -0.01896312623183       -0.05252218296658
C           19.58961896814270        1.16103449509524       -0.33848592122556
C           20.23373856933821        2.39364261365405       -0.66432359309734
C           19.27097528773279        3.34717812915127       -0.66540388693175
C           18.03981978667717        2.69148697272044       -0.34297926206519
N           18.23951257266158        1.33673960419561       -0.20992762594325
C           16.83911921950974        3.35212200660461       -0.12296731632965
C           16.82494088638961        4.83193003197943       -0.12643829508544
C           17.62584466360675        5.55226624906932        0.76389015218806
C           17.61947467459226        6.93554362391869        0.76306918578619
C           16.81271321560192        7.62287122013803       -0.14230475131026
O           16.83503250646977        8.98007996281547       -0.12043994184710
C           16.01279603158733        6.91862107993356       -1.03934757031667
C           16.01944509183883        5.53274150087712       -1.02532281359567
C           15.64937051920433        2.65986913401330        0.06508703415026
C           14.37810991807712        3.28424967919853        0.28727772022830
C           13.44046206652136        2.31298013488580        0.17820144466736
C           14.14197657251787        1.09300461155911       -0.07911278725285
N           15.49678264765629        1.30537712781318       -0.09065359724174
H           12.44742930288969       -0.12254913878099       -0.46485208657289
H           12.53035002813862       -2.68186366581387       -0.95155889685850
H           14.41431685096071       -4.57686503236453       -0.58594517299609
H           16.61887159292245       -5.33310299792024       -1.74821906735750
H           16.60333198735995       -7.78924872288774       -1.46707338223209
H           16.77097181475164       -9.51731699227046        0.02505208563054
H           17.21646521617469       -7.31512328051772        2.74498733811473
H           17.22309910788390       -4.85160588496792        2.46554380208134
H           19.45314956005991       -4.40151893492892        1.02276636496222
H           21.33899061361566       -2.48301847066837        0.84872472262779
H           21.28871074493155        2.50187983942186       -0.85749608159922
H           19.37375462462062        4.40026383321274       -0.87070526551888
H           18.24502410810118        5.01804871942592        1.47579180570770
H           18.23337455348915        7.49615174662201        1.45707119773150
H           16.24138919101457        9.35327533382106       -0.78584132205885
H           15.39113265602685        7.45741597142586       -1.74638977816511
H           15.40887091101601        4.98666184461005       -1.73575806353556
H           14.23415807573414        4.33231316409432        0.49433202591595
H           12.36869846468753        2.39500961441219        0.26585004323205
Co          27.70168544101423        0.04608754866999       -0.06801352301946
C           31.06088943755828        0.05232405494946       -0.38161409638799
C           30.37432977583557        1.20861940739053       -0.68259716261358
C           31.01132040932417        2.42708760957205       -1.08019427528931
C           30.06334928838882        3.39227676044479       -1.03517893815279
C           28.84190600919028        2.75811475483642       -0.63340107852920
N           29.03358981152790        1.41052949275254       -0.46563659991001
C           27.67392069865224        3.44172425349485       -0.31941440285558
C           27.67115467184160        4.92388993727213       -0.36986307786727
C           27.84879063474115        5.59487571613903       -1.57941409321547
C           27.85123412673990        6.98063332764808       -1.62544830202885
C           27.68079273868047        7.71143917471109       -0.45205278538923
O           27.68328849039399        9.06934633838113       -0.45082299330830
C           27.50091276196219        7.05202265732843        0.76254761015289
C           27.49301676523855        5.66883722901622        0.79778935015442
C           26.50576931644315        2.77873725271136        0.02494270746759
C           25.25939987528466        3.43708988347684        0.27840505329871
C           24.30935802934118        2.47237549932740        0.32329936189627
N           26.32226920375513        1.41516524584787       -0.03489393122870
C           24.97610310316475        1.22866366811800        0.10278623100209
C           24.30859502180308        0.01121491191048       -0.05469212665534
C           24.99812399243884       -1.19760049916678       -0.16838653370840
C           24.35400964216021       -2.46420906074366       -0.31399921805391
C           25.31677535776108       -3.40802940118063       -0.17824935793963
C           26.54793327244234       -2.71285648650949        0.04673512743631
N           26.34823180913576       -1.35303593886460       -0.01595081725314
C           27.74863954465755       -3.33508545237694        0.35924541388789
C           27.76283086228650       -4.80007926642187        0.56814305237916
C           26.96193322188845       -5.38522045245475        1.55261903566824
C           26.96828654887414       -6.75430480937423        1.75026292910240
C           27.77501500102857       -7.56442425908763        0.95284776499007
O           27.75271326483714       -8.90445225843432        1.16922813200914
C           28.57495000731446       -6.99616409248966       -0.03594716377670
C           28.56832630698111       -5.62260904313581       -0.22089149269479
C           28.93838456657575       -2.62300853172624        0.44602700757903
C           30.20964896356677       -3.20904470474782        0.75549536806356
C           31.14729032434022       -2.26346664942680        0.50819672258964
C           30.44576741627145       -1.09303823110492        0.07849875430407
N           29.09096208366592       -1.30487056276619        0.09758065264744
H           32.14030626011940        0.05461108564522       -0.47764367506949
H           32.05737227032476        2.51761238626198       -1.32650586105563
H           30.17339854851717        4.44545646825836       -1.23655115715754
H           27.96885904496207        5.02711618008981       -2.49529568706286
H           27.98440194247880        7.49818731157576       -2.56943554019005
H           27.81675332678358        9.42245186795747       -1.34067240436820
H           27.37122679978047        7.63326621838601        1.66706698874502
H           27.36459207583606        5.15514312727198        1.74395069547067
H           25.13456304254196        4.50271207730084        0.38067089003352
H           23.24873038359034        2.57908147169026        0.48366699914810
H           23.29903703594123       -2.59904725262763       -0.48963750325237
H           25.21399867670578       -4.47967590687367       -0.23032473646320
H           26.34274068747261       -4.75438874080767        2.18050062773558
H           26.35440197649175       -7.20953752752756        2.51752914831817
H           28.34635615803710       -9.36925802286627        0.56425341341250
H           29.19661438103556       -7.63082909399184       -0.65837119206038
H           29.17885880494001       -5.18411567370857       -1.00235341955502
H           30.35360793086298       -4.21655959899541        1.11076842214339
H           32.21905503176693       -2.33206740691691        0.60669778688929
C           21.68539961000337       -0.00906930283899       -0.06268626656907
C           22.90233706766769       -0.00004117311666       -0.06333443368407
