504
 energy: -884.889166532467 gnorm: 0.000826499067 xtb: 6.5.1 (b24c23e)
C           62.37104077571071        0.04674721011600        0.04444867292324
C           62.97923910133739        1.27478201468690        0.27012016327598
C           62.32727358180286        2.52337672322007        0.47375587721846
C           63.28931530124313        3.47450966519873        0.66547194131470
C           64.56019693222704        2.83527915042794        0.59551874029805
N           64.32243958001403        1.51369704477236        0.34631120549436
C           65.82347411388798        3.42265732368102        0.72930637199469
C           65.85192031344970        4.87646157657552        1.01669697560451
C           66.45657214289230        5.77586915683207        0.13915827927383
C           66.45188868580067        7.12717243174874        0.44670084993034
N           65.89727818247218        7.61698808335852        1.55091706271989
C           65.32198053877661        6.76635328892853        2.39458519379512
C           65.27135830773970        5.39928183041148        2.17180123071075
C           67.04037684316953        2.74695009880396        0.61427960075047
C           68.33577072801904        3.37009692078328        0.81956384337605
C           69.25870583358962        2.40550758746006        0.62621557740208
N           67.19815355913737        1.42639755507571        0.32164535240710
C           68.52590661776652        1.19412287608735        0.31173419364833
C           69.16613243913039       -0.03120506947172        0.03337149260837
C           68.53112778579096       -1.25658212321804       -0.24607130446655
C           69.17594890744553       -2.48336335016250       -0.55562811278024
C           68.20935456386508       -3.43014477470459       -0.75267108059774
C           66.94315826370158       -2.81104981556834       -0.55978193968287
N           67.18975695552842       -1.49618035762972       -0.26437704887701
C           65.68119579051185       -3.40387656025533       -0.67159488442263
C           65.64967168870160       -4.85243459209352       -0.98084185459247
C           66.22960493414581       -5.79049950070820       -0.12721045660725
C           66.17149134679757       -7.13463695499394       -0.46016733187529
N           65.58933143600949       -7.58213538052984       -1.56799808302915
C           65.03591288336781       -6.69468533255168       -2.38835133657094
C           65.03827079921203       -5.33144790842288       -2.13923460760868
C           64.46299581495205       -2.73412179948558       -0.51438454811969
C           63.16038289763330       -3.37903274408907       -0.57822190911357
C           62.24448624072051       -2.41046063961780       -0.37773894674955
C           62.98631440610500       -1.17720883680124       -0.18193259426731
N           64.31930153340592       -1.41200058753967       -0.26138465124534
H           61.28572919759171        0.05418547733127        0.04646115736861
H           61.25809866253888        2.66319233104783        0.46572685028800
H           63.13810928070371        4.52856525497369        0.83266199810919
H           65.04746283335528        0.81349690221380        0.23110147360470
H           66.90981484173851        5.42322981228450       -0.77957703296795
H           66.91241464873150        7.84705030063824       -0.22355355833502
H           64.88101159366219        7.19597945641467        3.28935132317211
H           64.80272608192995        4.74268028208230        2.89526217072314
H           68.49480528523299        4.40151171216275        1.08919442465674
H           70.33244037592004        2.47859294772405        0.69156736365903
H           70.24399838510037       -2.61343979870500       -0.62282181692775
H           68.35694856507133       -4.46422096666025       -1.01799888982841
H           66.46770187395258       -0.80428073342854       -0.09245612214421
H           66.70304522001514       -5.47379345603394        0.79455680225662
H           66.61152735358874       -7.88373198223863        0.19163115653765
H           64.57010282661615       -7.09053396482936       -3.28607750135282
H           64.58586422310147       -4.64378485137878       -2.84374620966122
H           62.99496669181006       -4.43184927303447       -0.74083282147040
H           61.16919432498455       -2.49231073563472       -0.35142692597148
C          217.40056442677923       -0.04272384288188       -0.01314597477489
C          216.79215676972566       -1.23937518666096       -0.36919445382716
C          217.44374100330504       -2.44329786067131       -0.75843929975282
C          216.48156173324912       -3.37843025032051       -1.01666575338086
C          215.21102397298696       -2.77864418569823       -0.78291331907563
N          215.44904001056000       -1.48803006661941       -0.40491614854608
C          213.94771858371107       -3.36420498080910       -0.92422673123714
C          213.91873311138849       -4.78976530275287       -1.32891871704386
C          213.30703143507154       -5.19240666653796       -2.51566903203316
C          213.31156235106229       -6.53565065336176       -2.85664208883547
N          213.87248705542169       -7.47336571495836       -2.09976045189619
C          214.45442785505443       -7.09882838353405       -0.96512902247087
C          214.50575574255816       -5.78000567014057       -0.54184833077789
C          212.73108907820722       -2.71136070044850       -0.71369850166843
C          211.43610352832363       -3.36184598762828       -0.80514150855263
C          210.51325468247745       -2.41521703705590       -0.53701573913489
N          212.57329960382063       -1.40135106308308       -0.37704513783394
C          211.24574238319261       -1.19129042705021       -0.27477122031562
C          210.60539243555209        0.02800975536197        0.02872720007403
C          211.24047274593701        1.24855494508023        0.32848007017955
C          210.59582513328323        2.48303917974293        0.60605994287885
C          211.56256352443845        3.41665569521070        0.85775503772054
C          212.82866541260674        2.77698280965070        0.75038224457093
N          212.58189425725115        1.47054969981763        0.41982922079945
C          214.09069045773893        3.35597396116229        0.91954698509248
C          214.12234455888802        4.78721174909873        1.30091510727823
C          213.54155432986602        5.23609769269465        2.48674500980975
C          213.60006685658396        6.58493190392874        2.80003456696103
N          214.18338920417500        7.48611500701841        2.01641260004659
C          214.73755316205205        7.06727323181076        0.88314623113644
C          214.73488022497079        5.73942904981418        0.48652693444349
C          215.30883492310326        2.68764269354870        0.75592309702973
C          216.61155203529643        3.29126981673836        0.99121702945219
C          217.52738344112294        2.33756646101216        0.72872987476985
C          216.78541701699493        1.14993487911406        0.34328929411744
N          215.45241207845555        1.39487016612269        0.38069870162938
H          218.48587179355007       -0.04960068470464       -0.01746274964582
H          218.51274156652985       -2.56313542615647       -0.83343305996235
H          216.63246667546403       -4.39297499196452       -1.34798475219421
H          214.72424322539533       -0.81271468074406       -0.18621779171588
H          212.84847413715909       -4.46106114911594       -3.17043902066763
H          212.84563146508427       -6.87245758909669       -3.77806560515904
H          214.90043122797593       -7.88783332378143       -0.36664091359438
H          214.97993076023985       -5.52378335015172        0.39817427710323
H          211.27735860994164       -4.40409264836688       -1.02949246460046
H          209.43980324189798       -2.51144041705742       -0.50603438123401
H          209.52778597787551        2.62952445801004        0.60503951622796
H          211.41513826482009        4.45912993769451        1.08800186746502
H          213.30382938887581        0.77544058616502        0.26084580926481
H          213.06718723336024        4.53583377387007        3.16402820853595
H          213.15943083988194        6.95690745427464        3.72040974536137
H          215.20429295040822        7.82715247556955        0.26320724556214
H          215.18794139144788        5.44612164228648       -0.45293766445285
H          216.77711314162468        4.30296561266722        1.32481386209255
H          218.60271742769737        2.39869308710521        0.78843923266639
C           70.57113004089547       -0.04421832341873        0.02928421164520
C           71.79637029162949       -0.05556957431709        0.02379903477347
C           73.13780627411232       -0.06278396192138        0.01827229231836
C           74.36987974229362       -0.06906863529946        0.01283789429609
C           75.70501606199365       -0.07222485091255        0.00535286074891
C           76.93884091469926       -0.07244096677701       -0.00018305394245
C           78.27389040945152       -0.07037797347352       -0.00592229933588
C           79.50610725078663       -0.06769331167871       -0.01172637176588
C           80.84725248039888       -0.06474324761798       -0.01737697853242
C           82.07279384237684       -0.05836488165980       -0.02279172625198
C           91.75282816746979       -0.01961365239713       -0.03194267416525
C           92.97856748534463       -0.01280754018672       -0.03140765610356
C           94.31964281605217       -0.00881089573049       -0.03039802983973
C           95.55210888773976       -0.00556386145708       -0.02840174869138
C           96.88703074177165       -0.00304427466895       -0.02620584908777
C           98.12116004278781       -0.00111323166740       -0.02407123423599
C           99.45608267972545        0.00035738017957       -0.02237503237363
C          100.68855737139440        0.00189548498114       -0.02083374748357
C          102.02965077225579        0.00209504628719       -0.01866284371905
C          103.25541157390673        0.00379748023999       -0.01921508938360
C          112.94090938609227       -0.00431320311791       -0.02094997023261
C          114.16672384901176       -0.00267676399372       -0.02166425847636
C          115.50791481123649       -0.00352894119117       -0.02132384320162
C          116.74043617710171       -0.00410573317984       -0.02081134087349
C          118.07547661877572       -0.00505841909233       -0.02004053110562
C          119.30966129988890       -0.00453248023710       -0.01929112745424
C          120.64470916723354       -0.00329242260878       -0.01823955190561
C          121.87723806155982       -0.00176914704816       -0.01635255445350
C          123.21843681599287       -0.00367424763254       -0.01336487085260
C          124.44426966567725       -0.00241308160518       -0.01662464398125
C          134.13317092825673       -0.00463505489721       -0.01921860771243
C          135.35902387155883       -0.00215538258646       -0.01900287076821
C          136.70027394764983       -0.00360178964404       -0.01831990085197
C          137.93285373947853       -0.00339322880384       -0.01756745556507
C          139.26791961941331       -0.00318346182570       -0.01929599418295
C          140.50211537007124       -0.00275073552536       -0.02053791145483
C          141.83727226499215       -0.00216101731902       -0.01779630996735
C          143.06985367338183       -0.00220378727656       -0.01722158599959
C          144.41109734945681       -0.00297645902350       -0.01595970007161
C          145.63696059103310       -0.00109894724844       -0.01573780365866
C          155.32608179187142       -0.00386707906814       -0.01385935345646
C          156.55188709484955       -0.00199494344369       -0.01260072850968
C          157.89308979900213       -0.00305955248217       -0.01214442489400
C          159.12562333805181       -0.00400149766144       -0.01369196982403
C          160.46068714917732       -0.00190457829794       -0.01251007351564
C          161.69489259418822       -0.00298610432987       -0.01367330494216
C          163.02994055991039       -0.00286341031656       -0.01243520177937
C          164.26246060604467       -0.00200267450303       -0.01263049257524
C          165.60365941691779       -0.00350991520757       -0.01182334253693
C          166.82947474919990       -0.00172464476286       -0.01158307881491
C          176.51554387770150       -0.00696035189435       -0.01125897980029
C          177.74132119725761       -0.00352381700139       -0.01280311319705
C          179.08242198534009       -0.00620650221233       -0.01462723123235
C          180.31488486475780       -0.00725294241179       -0.01705738709570
C          181.64981571085409       -0.00467994678397       -0.02043211993556
C          182.88395331595541       -0.00292984205090       -0.02363627870146
C          184.21888315914845        0.00207014822111       -0.02278874059932
C          185.45136834589138        0.00200205458985       -0.02450397547223
C          186.79246413434331        0.00378810466370       -0.02748095529544
C          188.01820770911493        0.00953397502380       -0.03021136834407
C          197.69866184724557        0.05023561126598       -0.00685742241646
C          198.92419625770293        0.05784001455564        0.00225424931158
C          200.26534011624921        0.06154327249681        0.00845049183523
C          201.49760189682672        0.06533157543679        0.01521138959543
C          202.83264184693746        0.06695648289396        0.02245935130055
C          204.06651511078377        0.06753545385961        0.02869328622684
C          205.40164137762358        0.06424081453240        0.03292009322182
C          206.63371339671889        0.05986232452256        0.03459768038564
C          207.97514338082223        0.05187650324920        0.03556570059719
C          209.20042620110894        0.04043369347038        0.03365916383506
C           83.47669743023472       -0.05426034682835       -0.02617757129097
C           84.10883863550596       -1.28345334728365        0.24559788135704
C           83.46613717252036       -2.51125864415315        0.54894739493200
C           84.43555967613048       -3.45891233044984        0.73356366990038
C           85.69899465982357       -2.83726601241781        0.53858020794056
N           85.45078797883266       -1.52085011924028        0.25567201582718
C           86.96135706779323       -3.43598147865345        0.63256614401014
C           86.97838512652338       -4.88999510668891        0.92401857490746
C           87.56986658884196       -5.38773285049045        2.08447808418382
C           87.55588303416373       -6.75386353366049        2.31748577238273
N           87.00489041096428       -7.62599891457671        1.47940429160964
C           86.44222030408896       -7.16030059623337        0.36911375045350
C           86.40114525943821       -5.81175300150359        0.05140216654599
C           88.18565438588173       -2.78461699774293        0.47673085137970
C           89.47131984340079       -3.45828302686692        0.52326719552609
C           90.40869163727696       -2.50631443080456        0.33685477575096
N           88.36294463182280       -1.45421200286788        0.24606967405514
C           89.69414922940801       -1.25626778794369        0.16884486146276
C           90.34904066994230       -0.02398709462925       -0.03335048458971
C           89.71674053307559        1.21831870807212       -0.23741899414114
C           90.35928105759453        2.47097235281423       -0.41303291103506
C           89.38978911064494        3.41914838998681       -0.59432130107848
C           88.12630277615047        2.76960379145816       -0.54354226655049
N           88.37481609281586        1.44234313019435       -0.31597206703931
C           86.86412150148196        3.36020777825031       -0.67911929610614
C           86.84598113320691        4.81805639892429       -0.95064338869507
C           86.25306509191911        5.71186819262092       -0.05964581153535
C           86.26415066704277        7.06623145907499       -0.35351042870162
N           86.81370448159889        7.56351795507088       -1.45682171924887
C           87.37795256326113        6.71815398524331       -2.31307182617392
C           87.42191813701103        5.34856672910152       -2.10437780049916
C           85.63958402990880        2.69762063020924       -0.58097347468916
C           84.35388225009783        3.34014677379338       -0.78841795042587
C           83.41654253212947        2.38729270658506       -0.60628058731045
C           84.13116623177136        1.16472062443754       -0.29681445424621
N           85.46258658758927        1.37728865552851       -0.29938367888457
H           82.39857700676058       -2.64269494419033        0.62044367197799
H           84.29009751115349       -4.49525694258365        0.99091399258552
H           86.16764961667957       -0.82369530132985        0.08440750733943
H           88.02046301471987       -4.71246823900717        2.80198133126192
H           88.00586345115875       -7.16472983259021        3.21648830464616
H           86.00370608443124       -7.89742786231582       -0.29714884199619
H           85.94184686477573       -5.47922948148877       -0.87193244511572
H           89.61451119872486       -4.51708238088087        0.66535000713079
H           91.48103589920099       -2.61383158710165        0.30466804807099
H           91.42683473751953        2.61964470649666       -0.39595011083841
H           89.53504676384361        4.47681747991170       -0.74146503220315
H           87.65800150467125        0.73149262069700       -0.21537017418746
H           85.80327396565812        5.35235966101489        0.85810779891924
H           85.81272511525033        7.78207327755622        0.32713708984368
H           87.81514318700025        7.15412915347713       -3.20657109123448
H           87.88209671544247        4.69629266287042       -2.83707342994626
H           84.21045783373832        4.37558132690025       -1.05116080828238
H           82.34417506688027        2.47502963997855       -0.67585628789256
C          104.65918286021326        0.00163276407883       -0.01751798584428
C          105.28586776882980       -1.22921055221392        0.26019311207480
C          104.63817628474028       -2.45347751660212        0.56705359837760
C          105.60383404667530       -3.40411854945719        0.75605111988352
C          106.86992016142425       -2.78807769511371        0.56011387265812
N          106.62690630359094       -1.47159131489399        0.27268446016034
C          108.12952948112196       -3.39216594196621        0.65632477489200
C          108.13937818447177       -4.84547314874583        0.95216045958217
C          108.72643019699080       -5.34241068033276        2.11518747221374
C          108.70605153133367       -6.70781119335969        2.35203879610744
N          108.15296729270464       -7.57990285161711        1.51530990883618
C          107.59448971052851       -7.11496635368608        0.40260171395092
C          107.55984682212586       -5.76714685041503        0.08100633537295
C          109.35752519781047       -2.74809112941284        0.49849084801359
C          110.63921309269604       -3.42923891913197        0.54710750428608
C          111.58227775754825       -2.48354910973349        0.35735807174364
N          109.54277970540213       -1.41956305125388        0.26365531186774
C          110.87525788168752       -1.22983418236693        0.18555230041451
C          111.53703192427952       -0.00185146771324       -0.02038354701770
C          110.91022675737112        1.24287464832419       -0.22711432200963
C          111.55787959496433        2.49238986888765       -0.40568097307782
C          110.59218355372799        3.44426686545665       -0.58805290350909
C          109.32601384917201        2.80013051022752       -0.53529742614566
N          109.56912751495568        1.47232638307754       -0.30537820047468
C          108.06643649878437        3.39627997860501       -0.67190834920254
C          108.05570442821541        4.85398035135517       -0.94526518179281
C          107.46957653298230        5.75196433830394       -0.05400810003891
C          107.48764981401646        7.10594322579165       -0.34932590053851
N          108.03763780806275        7.59894770296525       -1.45433093976263
C          108.59532702908351        6.74955805476673       -2.31088412073681
C          108.63215237113803        5.37996598511766       -2.10078126124789
C          106.83836068416754        2.74049758665701       -0.57382372663005
C          105.55655738679128        3.38999299289316       -0.78403302437527
C          104.61355934948492        2.44260832583515       -0.60259574900275
C          105.32078083151463        1.21653747282033       -0.29006532807000
N          106.65330958695823        1.42151210232961       -0.29055104781106
H          103.57005183169149       -2.58062612566959        0.63783906071802
H          105.45413988565940       -4.43901469653657        1.01677719514430
H          107.34625576441157       -0.77752208923833        0.09934829360941
H          109.17867159201414       -4.66705416049993        2.83156610485496
H          109.15249263779874       -7.11807504739015        3.25307336324415
H          107.15414443392334       -7.85208273128227       -0.26245493245098
H          107.10377218328117       -5.43521956599529       -0.84413670262541
H          110.77611586557857       -4.48838540994589        0.69273221817841
H          112.65396045965667       -2.59753407549103        0.32535008716665
H          112.62605424771226        2.63664546925898       -0.38961482323317
H          110.74179884551778        4.50102260049909       -0.73735366066948
H          108.84974432015977        0.76432712090327       -0.20303850051984
H          107.01958402824788        5.39586837857011        0.86497748871893
H          107.04171866487621        7.82502760973152        0.33152230588813
H          109.03301933123433        7.18213726177596       -3.20578205069694
H          109.08726205647939        4.72433269655675       -2.83364138476781
H          105.41943423990270        4.42596152137209       -1.04803717863223
H          103.54180700739245        2.53626236733314       -0.67401120419157
C          125.84814013508120       -0.00317582180542       -0.01405409659519
C          126.47607966421420       -1.23345835436611        0.26339614086040
C          125.82985387012137       -2.45863394346116        0.56969101114701
C          126.79668190503227       -3.40797476488772        0.75916799721589
C          128.06211577275232       -2.79025369212418        0.56407406113179
N          127.81746603736482       -1.47405962337337        0.27656082343562
C          129.32225783649315       -3.39301518287386        0.66125868089387
C          129.33325423421169       -4.84622371826906        0.95788391430260
C          129.91866493278857       -5.34169526248786        2.12235302610978
C          129.89987364641254       -6.70701167443041        2.35981126403043
N          129.34987494786350       -7.58032212328235        1.52232178179296
C          128.79296994306523       -7.11676172436780        0.40825876818473
C          128.75689206485350       -5.76913508457863        0.08597335545380
C          130.55010368100380       -2.74852044404353        0.50376043567775
C          131.83190260186933       -3.42944880276190        0.55348261498184
C          132.77492069028224       -2.48383760740162        0.36313358498991
N          130.73526961383365       -1.42018726374448        0.26800686647935
C          132.06779932798941       -1.23039654572534        0.19004823872426
C          132.72926406659684       -0.00246322709876       -0.01703975455323
C          132.10136302842170        1.24164987994290       -0.22415699675086
C          132.74759710985754        2.49172018343371       -0.40370698100688
C          131.78074765877759        3.44250799617312       -0.58569232561715
C          130.51524324716567        2.79708788720785       -0.53181798392237
N          130.75993140743421        1.46965963625267       -0.30158310650207
C          129.25507806776548        3.39224436402729       -0.66774325377248
C          129.24375867479733        4.85000593333126       -0.94116795356078
C          128.65953197926669        5.74804665712819       -0.04875152329679
C          128.67739460778483        7.10204561203052       -0.34402612069723
N          129.22539118801299        7.59497082960429       -1.45004945855813
C          129.78120244792893        6.74550142444945       -2.30774131911606
C          129.81810631728911        5.37588957255075       -2.09777000394464
C          128.02716825743349        2.73622645750770       -0.56915008182147
C          126.74527746241053        3.38585595496397       -0.77865505566175
C          125.80226775671809        2.43841509191564       -0.59755226505896
C          126.50947517399591        1.21214219766666       -0.28580891206052
N          127.84204366433966        1.41713045289764       -0.28633223528368
H          124.76185678031587       -2.58721150685776        0.63984552051907
H          126.64823093055497       -4.44312310494680        1.01960793158605
H          128.53578998126770       -0.77883167863546        0.10361496890488
H          130.36852756740149       -4.66530340298829        2.83925335980236
H          130.34510524738371       -7.11617725447814        3.26194150943976
H          128.35518827805916       -7.85486753012969       -0.25738991278495
H          128.30220509221439       -5.43830561538584       -0.84024422131329
H          131.96892745407871       -4.48843050799823        0.70017611249827
H          133.84663508737808       -2.59768973274699        0.33164296815307
H          133.81563387482751        2.63708935116198       -0.38841055776020
H          131.92918612445550        4.49935435354144       -0.73551485941639
H          130.04157492268510        0.76072540936483       -0.19852873545156
H          128.21119941254668        5.39198788549821        0.87105819947858
H          128.23299682301791        7.82120881303165        0.33773874888649
H          130.21730684048842        7.17802760096604       -3.20343934827517
H          130.27177022921418        4.72017787866363       -2.83145628625439
H          126.60815297778068        4.42199935342978       -1.04197496941354
H          124.73050215525822        2.53216169658017       -0.66862202468028
C          147.04086954329654       -0.00256590084332       -0.01420576266364
C          147.66861835842982       -1.23299328687200        0.26314318919369
C          147.02222311257407       -2.45829070462551        0.56864262236014
C          147.98893982133751       -3.40767781188583        0.75845547512082
C          149.25451285390213       -2.78986348737252        0.56452398342671
N          149.01000620994006       -1.47360392623131        0.27709738675451
C          150.51457452629285       -3.39260102163952        0.66276277766876
C          150.52557184161978       -4.84583959378789        0.95928662813816
C          151.10999419245942       -5.34119747191630        2.12430700226738
C          151.09173525983280       -6.70656540512994        2.36149166418230
N          150.54315454848432       -7.58002934911672        1.52323002174856
C          149.98714741034050       -7.11656939854685        0.40867991027293
C          149.95062300759611       -5.76889706189153        0.08661204666930
C          151.74260189128188       -2.74811986566381        0.50643427076974
C          153.02434705878136       -3.42907370429377        0.55727046757882
C          153.96755600687592       -2.48347409515832        0.36777294377183
N          151.92800603247875       -1.41979883833881        0.27092205970538
C          153.26061613698019       -1.23002475273502        0.19408004868717
C          153.92220235805732       -0.00208521432698       -0.01256329204272
C          153.29444339224619        1.24200156871104       -0.22006580925001
C          153.94083793046505        2.49204613091814       -0.39906570046450
C          152.97413366487612        3.44281289691018       -0.58190290429026
C          151.70859792195375        2.79736671431398       -0.52908527130614
N          151.95307775262921        1.46997502173271       -0.29855100679000
C          150.44854065071675        3.39251799983485       -0.66611588487397
C          150.43782436561182        4.85022803604229       -0.93985143873424
C          149.85340621753883        5.74873325053601       -0.04804213775237
C          149.87242631004483        7.10269330344526       -0.34344771691850
N          150.42171648559730        7.59515046928848       -1.44903495686649
C          150.97766839560293        6.74522518341514       -2.30618803546931
C          151.01347103145284        5.37561711976586       -2.09604203949137
C          149.22054638018767        2.73659020364118       -0.56826834792290
C          147.93884174941815        3.38635606266855       -0.77846811203403
C          146.99562413211603        2.43905755974185       -0.59771449190724
C          147.70251974764980        1.21268014891453       -0.28562033753910
N          149.03511109078525        1.41748990254638       -0.28555987489741
H          145.95417899726255       -2.58693745118092        0.63795145437369
H          147.84035814668792       -4.44293158130049        1.01840751660821
H          149.72843230066044       -0.77829376813664        0.10490190258896
H          151.55877119739361       -4.66468710585767        2.84177649821623
H          151.53628096661870       -7.11565179942072        3.26399657695240
H          149.55055290364999       -7.85480722433568       -0.25760145492305
H          149.49676674420706       -5.43815279577834       -0.84004212333436
H          153.16124759908772       -4.48805880449416        0.70404415615059
H          155.03929351032858       -2.59733528474582        0.33721787396454
H          155.00886288294978        2.63741660020388       -0.38285997737716
H          153.12272274448299        4.49965226045533       -0.73160964060859
H          151.23466728791897        0.76101031078512       -0.19609756256190
H          149.40412956141671        5.39307980555034        0.87146278746105
H          149.42797854659244        7.82222803403949        0.33789167250087
H          151.41487838316695        7.17737239685134       -3.20153023598618
H          151.46739138192748        4.71953108463121       -2.82923644761512
H          147.80200837335735        4.42250919833902       -1.04191106607400
H          145.92390627306602        2.53293571203400       -0.66934787484308
C          168.23336142541243       -0.00346837163842       -0.01008876887291
C          168.86051453819610       -1.23414528493352        0.26753240515474
C          168.21326349161558       -2.45890397401511        0.57353453423198
C          169.17926449828974       -3.40902040352373        0.76332218494029
C          170.44522933043024       -2.79224834441586        0.56882958098261
N          170.20168637673308       -1.47582530885355        0.28116780394009
C          171.70496296634960       -3.39567550450147        0.66660392268120
C          171.71597477737694       -4.84882880174996        0.96322750195075
C          172.30248170739037       -5.34426076999838        2.12719071947072
C          172.28462245166131       -6.70962644911191        2.36437850803617
N          171.73449189800741       -7.58305995558905        1.52709393818773
C          171.17644965382070       -7.11953985866430        0.41358544306844
C          171.13939355958547       -5.77186234380532        0.09160084726176
C          172.93293692438127       -2.75126599976013        0.50950145129726
C          174.21478507251507       -3.43205285752032        0.55915784610435
C          175.15767982976146       -2.48622454205215        0.36923138675768
N          173.11786978549424       -1.42288101279832        0.27413953987063
C          174.45036580514787       -1.23284807603614        0.19653029462617
C          175.11175660828459       -0.00483313577098       -0.00978723195476
C          174.48471357195001        1.23972686361977       -0.21646835680379
C          175.13208315572956        2.48939431566259       -0.39462151545489
C          174.16613828441743        3.44098857373962       -0.57722106972262
C          172.90017843692360        2.79638735917512       -0.52515469570567
N          173.14357171858103        1.46873058845208       -0.29514902560835
C          171.64040306464801        3.39208526722292       -0.66257955956083
C          171.63023548368886        4.84973664855913       -0.93630039833558
C          171.04448725564703        5.74836994890620       -0.04548355968212
C          171.06447379407680        7.10234912785642       -0.34073830314464
N          171.61595236768949        7.59475148678033       -1.44526166634199
C          172.17316522859426        6.74471591456286       -2.30149416785669
C          172.20810708399102        5.37508225145601       -2.09142413869573
C          170.41249053015648        2.73602305622992       -0.56503323020070
C          169.13066453489233        3.38533055904587       -0.77569258300605
C          168.18771684983292        2.43779771683162       -0.59475961620901
C          168.89492900174861        1.21170777942970       -0.28210767308147
N          170.22741048518861        1.41690319935570       -0.28198668183395
H          167.14514250390002       -2.58670697557437        0.64318211890107
H          169.02997945949579       -4.44408817806645        1.02362062642329
H          170.92080564664374       -0.78130154828206        0.10867750404836
H          172.75260805189248       -4.66779615332860        2.84385924458976
H          172.73085199536138       -7.11875204473706        3.26603620134544
H          170.73864616045998       -7.85775069413999       -0.25193281052121
H          170.68398438871577       -5.44111804809579       -0.83429031787284
H          174.35199464834750       -4.49106398380532        0.70544324819539
H          176.22941387883623       -2.59989120676931        0.33781125370034
H          176.20020675781990        2.63398568337684       -0.37803505002405
H          174.31555719145661        4.49780916785912       -0.72622769637804
H          172.42443895570094        0.76041563772564       -0.19328065259368
H          170.59354360622851        5.39281364109381        0.87324194849467
H          170.61904554080778        7.82196661122186        0.33987449668372
H          172.61219223992245        7.17680618144631       -3.19597625565765
H          172.66312249551203        4.71893449207855       -2.82388565557739
H          168.99360123471735        4.42134668351690       -1.03955998640578
H          167.11598810586457        2.53133791215019       -0.66663976050968
C          189.42199861365393        0.01339312346548       -0.03090878921703
C          190.05381376014887       -1.21531300044709        0.24445871407302
C          189.41076912521200       -2.44303197378409        0.54780025977342
C          190.37989987663155       -3.39078155090415        0.73318680859146
C          191.64366238695965       -2.76940684447953        0.53906442523411
N          191.39567706345196       -1.45276354293576        0.25601468246954
C          192.90558572995852       -3.36857324831130        0.63307865108724
C          192.92310396582064       -4.82296246209238        0.92247586838594
C          193.51609198019506       -5.32201289423840        2.08164266235629
C          193.50439101478798       -6.68858551031297        2.31207760767418
N          192.95418355045334       -7.55995889598749        1.47268241690234
C          192.38988703358768       -7.09300212435052        0.36376242499321
C          192.34648318574386       -5.74390549748482        0.04862344155355
C          194.13045301644055       -2.71727507843152        0.47923219393712
C          195.41586853403285       -3.39141096810461        0.52535774292710
C          196.35377104392992       -2.43890036383234        0.34425069527183
N          194.30815620224487       -1.38640932935347        0.25318471950191
C          195.63976334778332       -1.18824336172125        0.17949783770561
C          196.29482408358035        0.04493903863135       -0.01466969355564
C          195.66300480788050        1.28752344352881       -0.21766731424347
C          196.30573618128940        2.54070098467391       -0.38791205463069
C          195.33665290226949        3.48829325371607       -0.57475356086078
C          194.07346110646608        2.83768614030835       -0.53248025023451
N          194.32134203131190        1.51070059903475       -0.30398495190338
C          192.81154714984731        3.42741085610240       -0.67649660851150
C          192.79555263967458        4.88475085949963       -0.95086831297438
C          192.19828778628499        5.78097144020911       -0.06526679773002
C          192.21334906571994        7.13481327795208       -0.36142750927198
N          192.77069533707663        7.62937929458407       -1.46204371960729
C          193.33904255815423        6.78166493200978       -2.31327177414929
C          193.37959003334842        5.41241384097596       -2.10187970072950
C          191.58700462883755        2.76453293760612       -0.58393765942946
C          190.30205509959509        3.40631518619622       -0.79832660513257
C          189.36409753530336        2.45376921464377       -0.61781103791339
C          190.07760496478576        1.23184966024043       -0.30282140116886
N          191.40878611220583        1.44447682376792       -0.30049005161868
H          188.34313769286339       -2.57436405550609        0.61840677417439
H          190.23421264351234       -4.42712238035478        0.99045612835437
H          192.11272826400008       -0.75570177504979        0.08516982392410
H          193.96639486491827       -4.64744175102230        2.79998457727454
H          193.95584559380700       -7.10047931211534        3.20986888813822
H          191.95216644281098       -7.82955229707028       -0.30365268703660
H          191.88622459159765       -5.41036178162848       -0.87386185309572
H          195.55875785324451       -4.45075425558954        0.66357439525039
H          197.42615176063882       -2.54645084217923        0.31357840560318
H          197.37306285496780        2.69010615030049       -0.36407453716176
H          195.48211197940736        4.54615955274386       -0.72023259856936
H          193.60452999045600        0.79913420190805       -0.20861680589691
H          191.74238122391230        5.42378845655496        0.85037191416575
H          191.75889393382036        7.85255302865169        0.31519443921918
H          193.78271471853773        7.21542577656146       -3.20465600257340
H          193.84373693108950        4.75817606210416       -2.83031690051516
H          190.15970924173641        4.44118082549517       -1.06391347224936
H          188.29201500684846        2.54125171361906       -0.69196744852755
