183
 energy: -360.436279298016 gnorm: 0.000845584083 xtb: 6.5.1 (b24c23e)
Fe          34.91477327600695       -0.01902564360046       -0.07638035841492
C           31.52596329272098       -0.01902385340266       -0.18516229741839
C           32.17146956486476       -1.23777522454089       -0.21635545595353
C           31.48865187118554       -2.49545847853139       -0.26499096059184
C           32.44198445689800       -3.44987934347624       -0.37435003482588
C           33.70571343779068       -2.77092164363200       -0.40646288073093
N           33.52837431384395       -1.42142753139399       -0.26903113443527
C           34.92681914138241       -3.40877982959941       -0.59878934876465
C           34.92860960739915       -4.87043095976610       -0.83654845502926
C           35.57645608044798       -5.73130768616016        0.05394982513461
C           35.57371786047529       -7.09740678727317       -0.16297586012234
C           34.92343422040415       -7.60525849577496       -1.28381041520956
N           34.91784579003385       -9.03968059091464       -1.51696372540119
O           34.34538803369109       -9.44223907536269       -2.49658373993247
O           35.48435577379003       -9.73621915098255       -0.71505777866653
C           34.27748879877970       -6.76445659086998       -2.18538119939041
C           34.28032846581981       -5.40064368300835       -1.95595525083262
C           36.14084592359288       -2.73623368565991       -0.59206813658502
C           37.40348717670586       -3.36152589620078       -0.85337320225915
C           38.35105987751613       -2.40657435546164       -0.69627480013246
N           36.31705950563161       -1.40191756724180       -0.31551814794017
C           37.66544196438147       -1.20220108429010       -0.34487113462017
C           38.32495890869721       -0.00814950745174       -0.03235117208296
C           37.65061884158175        1.17751360880815        0.28112347330491
C           38.31921809480813        2.37765185451850        0.67673784320958
C           37.36001590176993        3.31833773116911        0.84896392991114
C           36.10822970033907        2.69163441883126        0.54202973306021
N           36.30128460375287        1.36646265158683        0.23339416608105
C           34.89129258838980        3.35852520742058        0.51934790329703
C           34.87254041089070        4.81311244333684        0.79558009490865
C           34.15820943352551        5.31063112730186        1.88957938151085
C           34.13314855258466        6.66795502535965        2.15368075615684
C           34.82388467641707        7.53546496679349        1.31261591304030
N           34.79544777598924        8.96328648700414        1.58162294271535
O           34.15768340575058        9.33819236005392        2.53146891369052
O           35.41083470579937        9.68244094226360        0.83777748214493
C           35.53949423183554        7.06059608140043        0.21744795161347
C           35.56290881336036        5.70080340985065       -0.03474199594008
C           33.68439130632088        2.72400749155599        0.24224465660032
C           32.42567275513991        3.40512510819201        0.13768782397750
C           31.48375419402964        2.45563678062401       -0.06943780238609
C           32.16837115836171        1.19820241385482       -0.09662319755584
N           33.51801796386253        1.37887933436325        0.05986299435059
H           30.44266684857178       -0.01858029949807       -0.22528265039538
H           30.41778091864206       -2.61216461195103       -0.21859711304438
H           32.31421435429960       -4.51888884775317       -0.42510410257558
H           36.06964979029025       -5.32334126301632        0.92848234608167
H           36.06643545956399       -7.77427849216867        0.52461490500377
H           33.78274140145410       -7.18499414570355       -3.05258935417662
H           33.78995418862357       -4.73349165710066       -2.65514808514100
H           37.53710954119732       -4.39453463228761       -1.13005636773615
H           39.41927677104657       -2.49504402969043       -0.81007139976200
H           39.38462956342670        2.47206399874350        0.81089468207082
H           37.47974651631136        4.34291055979828        1.16100941764725
H           33.63274847754864        4.62308789342481        2.54199371163769
H           33.58682009011523        7.06317017161877        3.00161817220020
H           36.06537699397691        7.75779788621070       -0.42367593817224
H           36.10544414444438        5.31917448762685       -0.89175290281158
H           32.29386545730966        4.47260609503599        0.20700082613541
H           30.41929880156095        2.57533584110630       -0.19255061049737
Fe          56.59665207881613        0.06797414278989       -0.02729850892100
C           59.97710648773190        0.10406170042180       -0.13670395672009
C           59.33321714469793        1.22673745750919        0.34311781297460
C           60.00759310240144        2.39125127835358        0.83282700467442
C           59.05318919174294        3.32219491215012        1.06915738169157
C           57.79763239375251        2.72967189040407        0.70634126807109
N           57.97829720416029        1.43001435937269        0.32004046362294
C           56.58687865845272        3.41483515970904        0.66257862977609
C           56.57953790378482        4.86277648319825        0.96607634602482
C           55.80820694914784        5.35514897008751        2.02332977944234
C           55.80331403307765        6.70585463661429        2.32005004662670
C           56.57138489909095        7.57277988452231        1.54825543088174
N           56.57116464457385        8.99283637344058        1.85678685273280
O           57.25657563307683        9.71083818397466        1.17576601953285
O           55.88619559781867        9.36257808581353        2.77534046362123
C           57.34059833278025        7.10402732615260        0.48725284188382
C           57.34343639653255        5.75063692546411        0.20248715256471
C           55.38518826993555        2.79791683195753        0.33871223666913
C           54.13732197679216        3.48597634088235        0.19105994991112
C           53.18883126493213        2.53636965066030        0.00296609017096
N           55.20219950585124        1.44544114514261        0.18404425459821
C           53.85754131076730        1.27386913106800        0.03615088942876
C           53.19236699978176        0.04019563672822        0.03607995792788
C           53.87576100966776       -1.18348039273382        0.02730817950951
C           53.22927635410128       -2.45557848309175        0.10546810042027
C           54.18775877430581       -3.39363887274128       -0.09004739970464
C           55.41819560316988       -2.68861988191925       -0.29518669049103
N           55.21767601483572       -1.33636181669151       -0.15901130631840
C           56.61482261024890       -3.28946274773346       -0.66430854317393
C           56.62549885886018       -4.74298105482504       -0.93912482773192
C           57.45721400493684       -5.59479537994060       -0.20568749972533
C           57.47595018287812       -6.95313086901110       -0.46481236071616
C           56.65944990628672       -7.46364544014014       -1.46974083786660
N           56.68183582939814       -8.88896254105976       -1.75226444167071
O           57.42832346287807       -9.57383697701326       -1.10202696307175
O           55.95165641111171       -9.29612886546185       -2.61859029599933
C           55.82365782184512       -6.63326663846961       -2.21069203583908
C           55.80834370349943       -5.27709540298219       -1.94020720071660
C           57.80603742537622       -2.58004225038898       -0.79224305058610
C           59.04723107893492       -3.15040709342121       -1.23195958068258
C           59.99252595361978       -2.19255275488715       -1.08261841137601
C           59.32672621162352       -1.03584116791457       -0.56351677055226
N           57.98193255829720       -1.27043766752916       -0.44035455303808
H           61.06030713335279        0.11659278457055       -0.17591252321154
H           61.07427108451825        2.46822016508934        0.97008613135344
H           59.17608336273543        4.32128354252821        1.45453225521418
H           55.22458557942175        4.66738619261250        2.62408394102223
H           55.21542471344483        7.09623288420850        3.14204346334848
H           57.92500064133830        7.80084325997415       -0.10148935401513
H           57.92847547790186        5.37448850580971       -0.62858447298139
H           54.01325950321915        4.55623451042583        0.21915370039254
H           52.12997017822570        2.66715782440465       -0.14766150545840
H           52.17796092709936       -2.60029546468750        0.29257963437734
H           54.08087462682051       -4.46610749051095       -0.09025781976964
H           58.07956282401852       -5.18630477314114        0.58188418100155
H           58.11366324458768       -7.62194635704380        0.10059376293681
H           55.20035570846579       -7.05573517236093       -2.98959808606348
H           55.17296610068270       -4.61760083753469       -2.51975557509291
H           59.16717257037368       -4.15347532344348       -1.60778398833782
H           61.04816740157302       -2.24723565630191       -1.29522134357954
C           39.72918957178354       -0.00236890157651       -0.02210759304075
C           40.94760950163428        0.00197284213608       -0.01473900037803
C           50.56988033250896        0.02481562099790        0.04956498419319
C           51.78938265197318        0.03070384006812        0.04759663440949
Fe          45.75769474868940        0.01123373129691        0.01548459765807
C           42.35066384830672        0.00462397765394       -0.00962816485643
C           43.02450376409586       -1.20143922993338        0.22238420383772
C           42.36574319393942       -2.43397376296390        0.52041138456704
C           43.32372672017494       -3.39331670162944        0.53446339402631
C           44.56307527666532       -2.74111303500166        0.23466708498352
N           44.36902797538166       -1.38880562136509        0.10013346859734
C           45.76750167360562       -3.40085653166038        0.01719264136673
C           45.77864843719253       -4.88008545828485        0.04191590420842
C           46.58294118613960       -5.55922971560264        0.96230423475778
C           46.59422442679810       -6.94158779737018        0.99963789835379
C           45.79921486057521       -7.65066218799805        0.10418332154530
N           45.80864593362926       -9.10430692282307        0.13865398703620
O           45.09701571219740       -9.68354238262289       -0.64001190156826
O           46.52601559675406       -9.63640155801911        0.94537137334585
C           44.99529820352027       -6.99407226919964       -0.82279028870396
C           44.98609836205350       -5.61111928843580       -0.84795582446158
C           46.96550018244228       -2.73354278355002       -0.21329673190744
C           48.20612155184664       -3.38055936363864       -0.51768669944669
C           49.15887559825071       -2.41587942224894       -0.51303028945730
N           47.15324090679589       -1.37932449594177       -0.08937539767108
C           48.49725530648971       -1.18646067498423       -0.21055119034793
C           49.16757098052534        0.01871646235058        0.04320277582886
C           48.48473223642711        1.22009474161035        0.28120307818926
C           49.13174976308810        2.45374476711358        0.59714347968553
C           48.17645310153891        3.41542859264027        0.56238477211030
C           46.94835960113677        2.76177686291065        0.22399201721998
N           47.14450877126110        1.40770299565978        0.11502145539112
C           45.75455439702962        3.42242047527692       -0.04595192585251
C           45.76603870985877        4.90081585737751       -0.09734215938045
C           46.59727295203056        5.56102377760055       -1.00770208551232
C           46.61033095089114        6.94225243459427       -1.07367537517412
C           45.78980848499894        7.66978700886143       -0.21686410525841
N           45.79991752587743        9.12232450231582       -0.28231265033836
O           46.53752037620075        9.63747026221392       -1.08176422606561
O           45.06845841069185        9.71770156641846        0.46523342762123
C           44.95998203357392        7.03248324440698        0.70068757159516
C           44.94965646409463        5.65033401276991        0.75481772303105
C           44.55591981137487        2.75562924292768       -0.27294024189301
C           43.31593726986477        3.39963314372541       -0.58821648991175
C           42.35997818613266        2.43869164737556       -0.55890285644812
C           43.02157139451577        1.21201843399153       -0.24315780015115
N           44.36543042583630        1.40410855830367       -0.12313824570285
H           41.30765724206607       -2.53867532196966        0.69743045657226
H           43.20982819983112       -4.44632452161345        0.73372702589936
H           47.18759932764336       -4.99434685992328        1.66214910590054
H           47.20826659676946       -7.47724844820452        1.71357295843541
H           44.38949274795840       -7.57044895069781       -1.51164014330967
H           44.37389286520202       -5.08761827426554       -1.57293836821327
H           48.32395528726952       -4.43363732881665       -0.71430445185325
H           50.21561663581844       -2.51628933219332       -0.69800870535750
H           50.18100512966293        2.55867450204107        0.81843852717094
H           48.28399520278543        4.47016639698461        0.75604886634540
H           47.22205347186000        4.98184785314850       -1.67756383423523
H           47.24521331062904        7.46288815801048       -1.78047002442652
H           44.33509374631071        7.62304542823560        1.35983489049827
H           44.31772701836388        5.14243885784163        1.47392873096951
H           43.19952797118478        4.44888340299269       -0.80490715018978
H           41.30161326813815        2.53841040368962       -0.73739820922833
