183
 energy: -315.859635497973 gnorm: 0.000798430434 xtb: 6.5.1 (b24c23e)
Cu          34.20062230110177        0.03045478055143        0.02974681943740
C           30.79354805885289        0.06393343348800        0.09211359429900
C           31.41979632116164        1.17388508701862       -0.45529258676921
C           30.73884988862005        2.28280713066262       -1.05881849401719
C           31.69216102781984        3.16151795224074       -1.45815201453037
C           32.96357871677010        2.60513088261282       -1.08424264298755
N           32.76784968057274        1.39184352146094       -0.48962896650668
C           34.20334216309971        3.21765354274498       -1.28635945815500
C           34.21568307736576        4.57836883886717       -1.87215012821739
C           34.90072780037114        4.82865761354061       -3.06436677297588
C           34.91501516553146        6.09366979362251       -3.62382879510676
C           34.25362750323105        7.14812793854653       -2.98890280960517
N           34.23422179842284        8.40691196813239       -3.56412346387326
C           33.56350878296985        6.90630449897944       -1.79830117959421
C           33.54559850130062        5.63545434812152       -1.25127239383532
C           35.43734032383830        2.63865164904815       -0.97644620461844
C           36.69866092087858        3.31620430883790       -1.05676994006762
C           37.65277124985849        2.42332763227367       -0.68922264049482
N           35.64275578871091        1.35411238389339       -0.54641356641991
C           36.98631365813976        1.19532084003161       -0.38404309585134
C           37.63881426574193        0.00271645198328       -0.01880108908438
C           36.97878634322412       -1.18205977252460        0.35851214313733
C           37.63399095765453       -2.42305750165480        0.63459302403493
C           36.67573109405846       -3.30335266041084        1.02217726387601
C           35.42395524390588       -2.60442732485241        0.98513085185628
N           35.63805083053314       -1.32036083685945        0.55781003949962
C           34.18990689616071       -3.16216721021347        1.33226140766871
C           34.19356214214415       -4.52774978484975        1.90614993256451
C           34.91936973686931       -4.80653267541540        3.06748238649970
C           34.92308357996264       -6.07673835944150        3.61536143960699
C           34.20882158699690       -7.10782015934146        2.99968990746291
N           34.17948803684928       -8.37059139505172        3.56594448163892
C           33.47769292198018       -6.83752870569312        1.84007968482880
C           33.47156396749062       -5.56176355266570        1.30449897562890
C           32.95591913841497       -2.52360018115305        1.17935572649130
C           31.68865414836933       -3.05515616147641        1.60053159024665
C           30.73880896779843       -2.15561644983356        1.24115811720774
C           31.41837215931595       -1.05897275229423        0.61439471317545
N           32.76210749044152       -1.30421701602183        0.59652761580717
H           29.70856857480402        0.07461671271295        0.11301391855500
H           29.66859378135826        2.35946936807134       -1.17037085684741
H           31.55342747177479        4.09868751917247       -1.97289211847045
H           35.41005017029742        4.01370948766058       -3.56718223416893
H           35.44046130828421        6.27171533469702       -4.55578809414547
H           34.98956126270773        8.59436555851839       -4.20398291731119
H           34.04218601200026        9.16378587842176       -2.92760557339084
H           33.04595577489782        7.72047569776338       -1.30268766546378
H           33.02442296972094        5.46145382843755       -0.31618576682951
H           36.83261677509212        4.34938291750987       -1.33372476892467
H           38.71505407494610        2.58309022948084       -0.61432133565797
H           38.69113556808276       -2.59957692569243        0.52669006219049
H           36.80073458297494       -4.34105157036821        1.28623582578419
H           35.46898837286679       -4.00965891079906        3.55656204030541
H           35.48080452540778       -6.27716795116824        4.52370125993887
H           34.95629857965433       -8.58400930225847        4.17096347402146
H           33.94062546578380       -9.11632069984899        2.93190678401599
H           32.91879831518820       -7.63310625352776        1.35937536918162
H           32.91776473884776       -5.36579729678884        0.39276893503751
H           31.55011372643482       -3.99062910466575        2.11838041132678
H           29.67234745817908       -2.21088141818131        1.39408253867774
Cu          56.02720374025316       -0.03604751439009        0.06680932133218
C           59.43299052005602       -0.02274216070800        0.13911623367876
C           58.79958694270135       -1.08520266248439        0.76671948993915
C           59.47542313746114       -2.19481513149580        1.37497914937591
C           58.51720355753300       -3.01606454352803        1.87240727585759
C           57.24704457345745       -2.40654445384994        1.58651291091882
N           57.44973584638017       -1.23968078435067        0.90742290746122
C           56.00299714859482       -2.93437084223584        1.94367762803917
C           55.98850724636360       -4.18288122178461        2.74227796370010
C           55.35457302915348       -5.32936886152094        2.25662460937631
C           55.33996317439506       -6.49954619538270        2.99465305772517
C           55.94945464573907       -6.54327886832300        4.25109576049167
N           55.96882256161629       -7.72223414287655        4.97693462711055
C           56.58970811506286       -5.40276188759866        4.74236528554407
C           56.60821558294280       -4.23965414337851        3.99309119545092
C           54.77002381767054       -2.37129481309700        1.60339359822182
C           53.49679506359810       -2.85338211375339        2.05675270922095
C           52.54954156100578       -2.04252786227665        1.51980620500314
N           54.57809888339504       -1.27126363393037        0.80989605153339
C           53.23506474487103       -1.05918555157006        0.73755307283502
C           52.59774912449384       -0.04144145649443        0.00598941528808
C           53.25741664008278        0.97446722566503       -0.70818837687368
C           52.59721387101910        1.94939265656132       -1.52175555050510
C           53.56042344063631        2.75886179551424       -2.03186439021486
C           54.81805969662503        2.28595012534865       -1.52828826494707
N           54.60148333690147        1.19068554437137       -0.73434591858232
C           56.06047661756724        2.85362339456336       -1.82415905989754
C           56.07134693167941        4.09275111568699       -2.63703892032863
C           55.40430291776160        5.23903587439082       -2.19731266200944
C           55.41183515930008        6.39863608595375       -2.95200377798258
C           56.07842677006070        6.43190112758534       -4.17943631140598
N           56.11914234761437        7.60123090369799       -4.91996069431282
C           56.75259587919093        5.29194996407407       -4.62434432480380
C           56.74783084144636        4.13946925322736       -3.85862449976426
C           57.29217808677164        2.33772146287636       -1.41069959584663
C           58.56850379075655        2.95672773286723       -1.64371698242618
C           59.51080978002349        2.14641374049654       -1.09997883719672
C           58.81834527698273        1.03349365392876       -0.51715065043067
N           57.47469272121918        1.17596538969663       -0.71722238056653
H           60.51801523972732       -0.01806231445174        0.16263305335168
H           60.54618131827299       -2.32412828021396        1.39827695719162
H           58.65192550061519       -3.95971768859806        2.37625185029210
H           54.88612458572636       -5.30552788101669        1.27870149418783
H           54.85454960647353       -7.38617868875950        2.60141291592481
H           55.23734086440126       -8.37536622430251        4.74567812700353
H           56.11493046403183       -7.60896004785991        5.96737369269528
H           57.06803540828442       -5.43222715460137        5.71536368392100
H           57.09073113108551       -3.35322668011641        4.39026100196395
H           53.35019141006493       -3.69058002837913        2.71996729256217
H           51.48058439928803       -2.09150925835630        1.65050783185268
H           51.53366948044665        1.99304453036969       -1.69216101613189
H           53.43406583538797        3.58948056078216       -2.70736517567035
H           54.89180660862149        5.22407647294502       -1.24158560095350
H           54.89937491135795        7.28520900794362       -2.59460713703881
H           55.37013775941561        8.24870498321977       -4.73318610466831
H           56.31287941416566        7.47639349367661       -5.90082632213604
H           57.27526252847348        5.31290691097795       -5.57446228595933
H           57.25700432826039        3.25292161985329       -4.22073276569228
H           58.71741835027269        3.89929552462596       -2.14560077429650
H           60.58040779627246        2.28503390795585       -1.07662834629138
C           39.04893078000583       -0.00643837557494       -0.03232096274298
C           40.26736292830555       -0.01258726616793       -0.03736067624912
C           49.97139653304255       -0.03659349262384       -0.01786691657064
C           51.18843490761048       -0.03927136995813       -0.01061897282704
Cu          45.12304695973980       -0.02715837688348       -0.02646417239499
C           41.67732953502450       -0.02015984231740       -0.04490208966220
C           42.33659694603074        1.13508276463686       -0.50632179882992
C           41.67197127975114        2.31015012929048       -0.98014845926729
C           42.63079522153564        3.23336903112020       -1.24463771967663
C           43.89430559971269        2.62038245340869       -0.95331111297150
N           43.68234649587282        1.34142090752311       -0.50953253869672
C           45.13217122007059        3.25965877320040       -1.05101206184060
C           45.13469636402728        4.68565158469558       -1.46524864996658
C           44.69013966847915        5.06570707195971       -2.73298380807834
C           44.69130336223752        6.39599566730314       -3.11528554386005
C           45.13864506946381        7.37957137795455       -2.22989762470985
N           45.09444912901974        8.71649460936877       -2.59054067920633
C           45.57522556340091        7.00809262829101       -0.95611007598388
C           45.57825085194035        5.67486078320189       -0.58511556906665
C           46.36866836514330        2.66861118993333       -0.78225791990952
C           47.63755745957860        3.32664772736026       -0.90598676534381
C           48.59254897515949        2.40694128393034       -0.61393573673292
N           46.57141041490729        1.36231122563037       -0.42517273240638
C           47.91608986334303        1.17968405821811       -0.32192515518069
C           48.56249963904415       -0.03079127849573       -0.01527342561365
C           47.90810094387874       -1.23832251976462        0.28858937162740
C           48.57326832473144       -2.48637095423358        0.50614997440543
C           47.61291883854807       -3.40322373210536        0.79214932518781
C           46.35372242853225       -2.71734633114722        0.75768736219938
N           46.56438862600279       -1.40480868696855        0.42874609597414
C           45.11352677066400       -3.30247219674352        1.02794904799402
C           45.10819621474970       -4.71302084742695        1.48110398855023
C           44.40338562528435       -5.68810864237645        0.77036237620461
C           44.40259980674205       -7.00788950330110        1.18530217758116
C           45.10875803840965       -7.38314555756766        2.33108748343575
N           45.07110817226938       -8.69352041991810        2.77618424749505
C           45.80445546968268       -6.41223169735683        3.05597941459474
C           45.80790098803772       -5.09652968073097        2.62825715924857
C           43.87865234366102       -2.65951102938673        0.90566127804946
C           42.61853989924654       -3.22634381049145        1.28918321632376
C           41.66332099661975       -2.30881734623714        0.99046283995664
C           42.32969975394916       -1.17556474549066        0.42671261528963
N           43.67229436373799       -1.40171704301476        0.40303914086096
H           40.60591369987299        2.41244975217327       -1.09191527493260
H           42.49471545052184        4.24245339146849       -1.59820230209668
H           44.35626104927810        4.30642397990297       -3.43179189095566
H           44.34755787676046        6.67927546996062       -4.10426481978846
H           45.10089813811372        8.88781494353926       -3.58366782960283
H           45.71718720379882        9.31543628135451       -2.07171679011192
H           45.91254523604475        7.76830273559602       -0.25975242591616
H           45.91187153301313        5.39454412401975        0.40813128343010
H           47.77827616896065        4.35692991914231       -1.19035698582541
H           49.66192558673114        2.54150988694597       -0.59620914345955
H           49.63767320853490       -2.64026566427228        0.43150013334109
H           47.74331332657211       -4.45532956430123        0.98777334100156
H           43.86819982093321       -5.40879050368430       -0.13067381246443
H           43.85772713655265       -7.75664595390367        0.62061865206195
H           45.83484670975688       -8.96173786890992        3.37604000703992
H           44.84921034870305       -9.37677513080756        2.06989757910227
H           46.34226964031565       -6.69489211673241        3.95443961007966
H           46.34235582968739       -4.34729100847814        3.20210977792703
H           42.48498871567895       -4.19173986956072        1.74985341469493
H           40.60097577472181       -2.38187748689337        1.15282912755826
