124
 energy: -212.699118021427 gnorm: 0.000963620339 xtb: 6.5.1 (b24c23e)
Ni          11.37150673418179       -0.01905512933757       -0.01451753085580
C            7.98228562084914       -0.05216482988503       -0.14770597349227
C            8.63866772382743       -1.26092203714715       -0.04107306753124
C            7.96782116894885       -2.52119050942409        0.05049592465848
C            8.92933712223351       -3.47436549098426        0.03847416126931
C           10.18674488603971       -2.79543874834866       -0.07386262676570
N            9.99962557340901       -1.43534871930356       -0.08047583999559
C           11.40803250523308       -3.44188295361183       -0.21561502626088
C           11.42996005303781       -4.92116026288120       -0.31246737202864
C           10.82230304006825       -5.56907625102202       -1.31737874658550
C           10.82115940862702       -7.07156581318217       -1.42789214663292
N           11.84422453519839       -7.66734113957574       -0.56470227152831
C           12.29302442841366       -7.00474729635453        0.54781941417731
C           12.15006622912077       -5.67658314651988        0.70258026793437
C           12.61348251929989       -2.75523501998187       -0.27464779347411
C           13.88045427802398       -3.39075656288695       -0.47111841171863
C           14.82305530314564       -2.42147686644774       -0.38496208551080
N           12.77733842153168       -1.39789912863732       -0.10917717816592
C           14.12972322225938       -1.19666315970977       -0.14336677267971
C           14.78117245373606        0.01557143864662        0.10398303301307
C           14.08991897100930        1.21299232643643        0.31077081308039
C           14.73941120579113        2.44987863506774        0.60690020216584
C           13.77305640006978        3.39926453029757        0.63367433656204
C           12.53627892066821        2.73972322277680        0.34421224632513
N           12.73907410726778        1.38690087158899        0.18443526994657
C           11.32523274121869        3.40312335030372        0.19617684061478
C           11.30897874988599        4.88222464529838        0.29635298827092
C           10.60811522110886        5.51470931918910        1.24908194367231
C           10.56359267737444        7.01667819969991        1.35831720479838
N           11.64077526270245        7.63659897133692        0.58221191383344
C           12.19239065637926        6.98634263530128       -0.49066357255674
C           12.09154097409972        5.65568669777360       -0.65702767218708
C           10.13166562313230        2.73341326826921       -0.04235591240168
C            8.87392550283515        3.38821785112617       -0.25304064127272
C            7.93536666626044        2.41670877018272       -0.34372109906129
C            8.62124896720196        1.16930386587423       -0.20126546801394
N            9.97111748076028        1.37006488904161       -0.05342665109645
H            6.89935230948342       -0.06273604879948       -0.19118902148582
H            6.89795203303792       -2.64084986382105        0.11581105257702
H            8.81149085527773       -4.54386998955470        0.10203445702982
H           10.28605801637431       -5.03978732485061       -2.09637021611364
H           11.03139736021809       -7.37486495615689       -2.46241613537498
H            9.82388920517644       -7.47255893751879       -1.16676135834797
H           11.78312514586163       -8.67224115918136       -0.49206235156911
H           12.84478013522541       -7.62005908901451        1.25129107455471
H           12.55531494610740       -5.16189222117007        1.56203900217549
H           14.01969080332799       -4.44423240285988       -0.65082305231909
H           15.89373714596386       -2.51262602525696       -0.47226394284679
H           15.79958843241836        2.56088371263242        0.76875468108560
H           13.87741238898276        4.45403297915067        0.82942745783143
H           10.02249472427842        4.97234752467933        1.98216523595559
H           10.68046233256280        7.32357796211941        2.40651755688312
H            9.58230829289114        7.39510726049430        1.01516300249991
H           11.56388586592736        8.64026269237803        0.50542485463688
H           12.78550768864363        7.61503883846621       -1.14710178285610
H           12.57576253637507        5.15219067854501       -1.48161690327404
H            8.73989408069696        4.45535751264161       -0.32405460273259
H            6.87189980718990        2.51574397367659       -0.49360712416134
Ni          29.93203853080604        0.01836472110383       -0.01048746026273
C           33.32117642538162        0.08071446226582       -0.13401133102658
C           32.66434969922977        1.23807687525718        0.22987060315991
C           33.33472560325786        2.44947815303056        0.59013485755569
C           32.37282796467847        3.38255085967237        0.78334621490115
C           31.11567509089016        2.74311350728699        0.52772157556474
N           31.30331862120139        1.41630524565463        0.22902970988557
C           29.89416714051055        3.40455293065743        0.52793949035036
C           29.87189741764390        4.87016855745100        0.75067283447925
C           30.47940329503047        5.71856870979020       -0.09197199950980
C           30.48067875087967        7.20976803435622        0.12243467998261
N           29.45769608034627        7.60653734420174        1.09339918883485
C           29.00881213625840        6.72070763183809        2.03783650571939
C           29.15176178081766        5.39025119397777        1.90410907617902
C           28.68897171701605        2.74619553529751        0.32279433732472
C           27.42173073203094        3.40854251095173        0.26726410471797
C           26.47953516539222        2.44292040480280        0.14354667923850
N           28.52567338668668        1.38487590074501        0.19323077289812
C           27.17343115535983        1.19507510122013        0.11678183705467
C           26.52237776367495       -0.04223438913328        0.09828731506491
C           27.21408430934245       -1.25585770686182        0.04307426303678
C           26.56507205733989       -2.52766983644527        0.06665798241517
C           27.53180055402823       -3.46026014300401       -0.11121544137239
C           28.76832025042511       -2.75347206181033       -0.25239055062244
N           28.56500590855606       -1.39797211276354       -0.11778546053797
C           29.97958033907391       -3.36922671019253       -0.53946041700665
C           29.99610154027415       -4.83533136448751       -0.75927016552860
C           30.69718681493957       -5.65764156891993        0.03522655154259
C           30.74132730476115       -7.14809541289545       -0.18034241585190
N           29.66397130197783       -7.58686507109860       -1.07126803990912
C           29.11223677644013       -6.72141990217658       -1.97942441369400
C           29.21325374701862       -5.38608303967198       -1.85628376196658
C           31.17295016531142       -2.66355369811244       -0.62860051574216
C           32.43093940003047       -3.25736575749919       -0.97487790010338
C           33.36906930767351       -2.28858060868017       -0.85513403033797
C           32.68268338466032       -1.10107031985368       -0.44839271067655
N           31.33292510108834       -1.32949550284098       -0.34693906521948
H           34.40409111423602        0.10088922066186       -0.17443237376897
H           34.40454877620245        2.55275675224726        0.67962053098128
H           32.49017698838715        4.41343261014882        1.07536591604130
H           31.01558082599908        5.36864817695254       -0.96637667101990
H           30.27049177338416        7.72802649456677       -0.82289513699333
H           31.47799221422326        7.54525992446318        0.46351873433118
H           29.51890295128090        8.57243426323677        1.37998350329785
H           28.45703706483287        7.17084540418281        2.85688636119749
H           28.74643322438492        4.70319575808542        2.63312507049344
H           27.28202039864344        4.47598701478580        0.31771593611043
H           25.40881919928993        2.55025685391363        0.07787380749831
H           25.50497317278576       -2.67123059860739        0.20104271791909
H           27.42784813660692       -4.53249257255086       -0.14655945034897
H           31.28308828253878       -5.28540257074997        0.86750556929068
H           30.62436926324731       -7.67263719612195        0.77765177656042
H           31.72249695199543       -7.44440005892280       -0.59672748950352
H           29.74059334028957       -8.55065876052432       -1.36161209977224
H           28.51887342700298       -7.19446052359775       -2.75537879809973
H           28.72892365717810       -4.71729625187394       -2.55346938054600
H           32.56544546622287       -4.28439236572438       -1.27307601526107
H           34.43257025283030       -2.35264892457705       -1.02278426928302
C           16.18495455169800        0.02677770466688        0.14393547275136
C           17.40908273706738        0.01975071413823        0.16669465077950
C           18.75227452174845        0.00849471021635        0.18310349764066
C           19.98257133926706       -0.01131067156502        0.18819956208447
C           21.32088486032772       -0.03054465194249        0.18613641301502
C           22.55120393086538       -0.04995120009827        0.17648084178826
C           23.89432179704912       -0.05722284061934        0.15855573441566
C           25.11844359940266       -0.06188442749925        0.13483310316437
