320
 energy: -588.930053596596 gnorm: 0.000618845443 xtb: 6.5.1 (b24c23e)
C           66.01178027421787       -0.00463825843073       -0.55798891298590
C           66.63336189091163        1.20471604337675       -0.84015257244065
C           65.99511319212361        2.43348713066055       -1.16909080977949
C           66.96623866967140        3.37799704602626       -1.34736698030672
C           68.23026970179578        2.75349289672979       -1.14455532041924
N           67.97809480522778        1.44700887590491       -0.83592395073138
C           69.49860140705457        3.33917045643974       -1.22021017093307
C           69.55000879784534        4.77370877586891       -1.59512144087188
C           70.11104452246001        5.70747495982974       -0.72791135180968
C           70.15857226081101        7.05685181094523       -1.07493718681722
C           70.76909774750763        8.00282816166089       -0.10727703357097
O           70.74530842479524        9.27917937196190       -0.51774930733838
O           71.24754891820778        7.68022779262164        0.94997406049462
C           69.64437009805434        7.48234745686006       -2.29984659613377
C           69.08803859726011        6.55469321643889       -3.16633718160198
C           69.03883202582853        5.21182220908453       -2.81913595354881
C           70.70571958413404        2.68043134971983       -0.97269257701066
C           72.01007694134213        3.29172272370237       -1.15401920822031
C           72.92033338068323        2.34824591812400       -0.83740823048440
N           70.84704781251634        1.38874427668962       -0.56740435027378
C           72.17316403749524        1.16315499693384       -0.46343434189162
C           72.79670024235034       -0.03730750912540       -0.06871598408163
C           72.14533718877010       -1.24120008517853        0.25799294443723
C           72.76853338127970       -2.45345738186824        0.65567000466806
C           71.79003481178221       -3.38582086969957        0.86051355164122
C           70.53503785199219       -2.76685020128937        0.60502268842772
N           70.80157836610620       -1.47274271406152        0.24389947496322
C           69.26949509249077       -3.36025949497112        0.66484416771481
C           69.22105684401710       -4.78294745683565        1.08385103570305
C           68.71623467229649       -5.75826761569135        0.22082705203627
C           68.67285770551234       -7.09060200377697        0.60732425593770
C           69.13072992489622       -7.46624767878070        1.85910106410203
C           69.63645639244048       -6.50098769278794        2.73102330245432
C           70.11724790377632       -6.94296438353582        4.06433082299844
O           70.59724218091735       -5.94466900997448        4.82006976798590
O           70.09314420864806       -8.08325582883263        4.45095990605757
C           69.68162042061371       -5.16361928293866        2.34250605238674
C           68.06476564421409       -2.71725194850433        0.36403564004940
C           66.75398822799313       -3.33741292408904        0.48440632547854
C           65.85315103748094       -2.39715037195792        0.13589303968259
C           66.61127560167684       -1.20072184950845       -0.18606403961301
N           67.93888441701112       -1.43038565291191       -0.03793546048668
H           64.92827619998531       -0.00047902948763       -0.62028908994297
H           64.92789606558593        2.56659102927223       -1.24702290107537
H           66.82419409300756        4.41939051700016       -1.58673980224751
H           68.69391530979790        0.76136170048531       -0.61987446443001
H           70.50398210312554        5.39662741358937        0.23394064170546
H           71.16077970739489        9.83019961080526        0.16533426643950
H           69.68358075904267        8.53094962324016       -2.56869488260610
H           68.69121057705523        6.87725944389281       -4.12229467921710
H           68.61675729281509        4.49031692910586       -3.50985070899168
H           72.18513260464486        4.29803843918697       -1.49821098314520
H           73.99545130554336        2.42009543375161       -0.86215571201906
H           73.83157142591602       -2.58834774307525        0.76884773870588
H           71.92405248098183       -4.41420648939336        1.15358928551679
H           70.09207789994231       -0.79088139254805       -0.00372803616160
H           68.37086146927015       -5.46850484513939       -0.76523195699700
H           68.28187908591931       -7.83673363518380       -0.07497064982467
H           69.10390669773281       -8.50237312021557        2.17700195237091
H           70.88871054336330       -6.31414615381016        5.66949425354926
H           70.06042164875136       -4.41460998426570        3.02783506746268
H           66.57210163398109       -4.34937151953285        0.80882198659319
H           64.77758394236844       -2.47186903630572        0.10100444611874
C          116.39538729254940        0.10026244140028       -0.20946257959314
C          115.82777317402490       -1.14753090004724        0.01301548083829
C          116.51980079865237       -2.36714248341763        0.25523104226382
C          115.58896045996849       -3.35431802724328        0.41691101555510
C          114.29807106474129       -2.77070554531667        0.26928650281574
N          114.49300676624152       -1.43943206927760        0.03523327835215
C          113.05521726971045       -3.40605753069323        0.36918028842600
C          113.07896555537737       -4.87107262402134        0.60704615746765
C          112.51454219843903       -5.41341278563472        1.75816165385497
C          112.54212535153866       -6.79005283648663        1.97806311640977
C          111.92534539765330       -7.30885788004203        3.22493724917621
O          112.00846253239575       -8.64153675154207        3.34890939988987
O          111.39342983286710       -6.62116303789649        4.05839570407082
C          113.13640278102626       -7.63645393698037        1.04206658002247
C          113.69846868670358       -7.09909021205282       -0.10513049172731
C          113.67243452017821       -5.72868686245006       -0.32241682666495
C          111.81501601821850       -2.77263625849581        0.26345457037419
C          110.54247892474235       -3.46721065260532        0.34270417973378
C          109.58587229100779       -2.52657658946801        0.20522308598961
N          111.60902075068067       -1.44221160942487        0.05842641743019
C          110.27272934889075       -1.26242452659674        0.02472886107143
C          109.58958256477413       -0.04188303173660       -0.14978104550824
C          110.18367389917694        1.21710902346002       -0.35992965893944
C          109.50139006901058        2.44798592785342       -0.54963305773044
C          110.43718859430172        3.42860738460543       -0.72608019701899
C          111.72294107735226        2.82347656008126       -0.66258367645605
N          111.51781250862628        1.48807118211677       -0.43580789053025
C          112.96427866772048        3.45750452705755       -0.77829200683139
C          112.94636248516366        4.92047884499005       -1.02711934144847
C          112.36207668484397        5.43797188320426       -2.18524239871536
C          112.34942636126335        6.80593990049945       -2.42029697848426
C          112.91657460192917        7.67383201079584       -1.50234535727685
C          113.50228814417707        7.16905747967858       -0.34035572705697
C          114.09954989812863        8.13133591833138        0.61930726624308
O          114.64815831123107        7.54727728316242        1.69446140902821
O          114.10533637142861        9.32632406234979        0.46825807467968
C          113.51712924819870        5.79577070414692       -0.10540454267542
C          114.20567059084505        2.82167964498612       -0.67662662626543
C          115.48524621741396        3.49324898631381       -0.84688881895027
C          116.43553894407962        2.55106045113954       -0.68495920194084
C          115.73777453834607        1.30357494161780       -0.42722047061194
N          114.39694271793172        1.50316329596487       -0.43620735479944
H          117.48028989337612        0.12837299146727       -0.21348052915359
H          117.59280767675324       -2.46216907018682        0.30381569859064
H          115.77447549601456       -4.39452988358231        0.63030650527724
H          113.74644921499048       -0.76503498139625       -0.09524629458853
H          112.06079787018075       -4.76975882243871        2.50379346530542
H          111.58429809389071       -8.90080154395202        4.18298563372537
H          113.15558342577398       -8.70573312802605        1.21417762499618
H          114.15920403430943       -7.75094255339970       -0.83873392465622
H          114.10140183335790       -5.31688589555961       -1.22919771514551
H          110.41847048440052       -4.52953271765671        0.47617633745549
H          108.51561491227183       -2.65279741633514        0.21840965340184
H          108.43006731666831        2.56206272545595       -0.55269493232574
H          110.25542076935568        4.47971705383888       -0.87954115770760
H          112.26088585463241        0.80527316586936       -0.32997921866357
H          111.93075268943707        4.75958913994885       -2.91287988825980
H          111.89642140539191        7.19240956174607       -3.32609535642359
H          112.91519120965674        8.74487758621694       -1.67029974640464
H          115.01498742975579        8.23967679335194        2.26787029407937
H          113.96030601077746        5.40730563616935        0.80385368586409
H          115.61335799372503        4.53988891683137       -1.07143223796840
H          117.50777812946086        2.65672253573231       -0.73755919080393
C           74.20538353639864       -0.04844381927586       -0.00369024648949
C           75.42162410982576       -0.05491662931707        0.04467805610021
C           85.12889252082606        0.00325386166145        0.13993317267966
C           86.34728667686167        0.01053297971717        0.14195590812948
C           96.05084540824349        0.01077278574324        0.09754672138083
C           97.26915935504441        0.00223914044338        0.09477895982342
C          106.96415878251533       -0.07496301563032       -0.06565330120529
C          108.18083221668924       -0.06621636163260       -0.11007645908627
C           76.83028882507328       -0.05029279020324        0.08426113664410
C           77.44910125189590        1.19164261629330        0.32073705912632
C           76.79873678528290        2.43558906566532        0.52684903847722
C           77.75964171925919        3.38141536572175        0.75685232214900
C           79.02674731084645        2.73831214165252        0.71291907155770
N           78.78896105066859        1.41934604203479        0.43368365671984
C           80.28131920553116        3.32415916023009        0.92084563503198
C           80.28644160586900        4.77134207116297        1.25160652810084
C           80.93641741262745        5.67831116101100        0.41896293699125
C           80.93946799338639        7.03945955043617        0.72045318256869
C           81.64904850247535        7.95544865413129       -0.20771507093717
O           81.59170795069404        9.24325387741626        0.16194109874280
O           82.22931672169197        7.60101265377924       -1.20179021643937
C           80.29027621827090        7.50341427209315        1.86454106621164
C           79.64576273993730        6.60219029132078        2.69723247522127
C           79.64144824715719        5.24752009724995        2.39550144648840
C           81.51195050474264        2.67051944192697        0.84071236774834
C           82.78087477493987        3.30118465142733        1.15722956382405
C           83.73288758261668        2.36957359409174        0.94449705971838
N           81.71308112236848        1.37571071095694        0.47063398685764
C           83.04620367032675        1.17311468298885        0.50143582501212
C           83.72173576785615       -0.00996040871546        0.13834071649368
C           83.09999069373382       -1.21915219305819       -0.23115792531479
C           83.74577079541400       -2.40788155275562       -0.65632978922653
C           82.78436731031238       -3.35611537387089       -0.87568158231630
C           81.52082971421876       -2.77255235558014       -0.58787854200996
N           81.76093919610625       -1.47615921292039       -0.21886852598401
C           80.26705943527939       -3.39066968727482       -0.67284283206823
C           80.27136252218948       -4.83393886068496       -1.02049503503243
C           79.63450514880816       -5.28907784295664       -2.17727229928533
C           79.63977522389339       -6.63829792975318       -2.50288321221587
C           80.27933008891756       -7.54958254472830       -1.67926589464113
C           80.92029609891812       -7.10719248567082       -0.52109259031731
C           81.59730055592253       -8.11407972520773        0.33462779859130
O           82.19047417739563       -7.58795926532351        1.41608927693138
O           81.62728002524997       -9.29470837060577        0.09926194783673
C           80.91600659293769       -5.75269018634952       -0.19468765692742
C           79.03471668154123       -2.76954125859135       -0.46509043436668
C           77.76046717858166       -3.46335281501036       -0.52078955525557
C           76.80862087723104       -2.52930821751549       -0.31768806818966
C           77.50141780678244       -1.27185666983815       -0.12108598367077
N           78.83640058371937       -1.44900737376401       -0.20017757168501
H           75.73157490408153        2.58245121810765        0.50435194294609
H           77.60478886927284        4.43291210150866        0.93496716813835
H           79.51006320490748        0.71446087105351        0.32240153671419
H           81.43506623591442        5.33673452564998       -0.48151887653185
H           82.07510212399401        9.77335539824601       -0.49242256563895
H           80.29349302703622        8.56126383746443        2.09763080396900
H           79.14315480634136        6.95517054485584        3.59058638362721
H           79.14789129006263        4.54736591090478        3.06024188722677
H           82.90387146824426        4.31213661938273        1.51032734556509
H           84.79820492317344        2.45584482277496        1.08246679739475
H           84.80933256763646       -2.51550194505057       -0.78891632822351
H           82.93537186433295       -4.36645420692252       -1.21892304775060
H           81.04197234908109       -0.80282310041487        0.02363761464136
H           79.14583640726607       -4.57562738786590       -2.83124911091076
H           79.14367742173920       -6.97629891479840       -3.40551735660966
H           80.29296924421307       -8.60681451671012       -1.91889061287416
H           82.60569676952085       -8.30680657599762        1.91992406941576
H           81.40161974127395       -5.41412684998074        0.71296500251922
H           77.63207651027689       -4.52136470435086       -0.68206447673902
H           75.73853477914271       -2.65648315362378       -0.29574225956901
C           87.75415367882209        0.01635208032634        0.14007750511599
C           88.38729573305874        1.27288337553035        0.21293744572360
C           87.75799422862841        2.54350945055018        0.22021763884078
C           88.72932283579867        3.49519223914951        0.37326240523309
C           89.98193760629914        2.83061342670596        0.46939251331112
N           89.72706774362933        1.49166755248582        0.34164653333239
C           91.23796292173390        3.41331643320786        0.68243192924852
C           91.25466946910036        4.87762102729887        0.91765220242273
C           91.99006852621704        5.71854060340545        0.08622019718876
C           92.00550568774032        7.09500646991887        0.30661974907512
C           92.80853971537726        7.93829904813999       -0.61455828638447
O           92.75078894977653        9.24745124235932       -0.32967245600214
O           93.45931202118062        7.51205618875100       -1.53382459443151
C           91.28298070188032        7.64185840460332        1.36709469191284
C           90.55207740063426        6.80728639904301        2.19791870002475
C           90.53539784002133        5.43746877184311        1.97679735476861
C           92.45850514183978        2.73555891201238        0.69172260888617
C           93.72796601003202        3.35793061054517        1.02211013841469
C           94.67159725267898        2.40689447268165        0.86273000971811
N           92.64908608581416        1.42483934761823        0.37675703886877
C           93.97874841108805        1.20715597536741        0.43922579314326
C           94.64423367493063        0.01113037973365        0.10108963745473
C           94.00933227592036       -1.20039423204206       -0.23796052897233
C           94.63723567657411       -2.40102771532640       -0.65574342101654
C           93.66609226044885       -3.35159961650239       -0.81735738562384
C           92.41555243813697       -2.75789852420806       -0.49630929258568
N           92.67073819240274       -1.45145688920462       -0.17710590541917
C           91.16062508756399       -3.37999462562727       -0.47570459915448
C           91.14301129991604       -4.83870034916296       -0.74402991117963
C           90.40004817066875       -5.35244274917680       -1.80989458305794
C           90.38375143822874       -6.71575112500174       -2.06873398108424
C           91.10571484453070       -7.58391035628419       -1.26683515001372
C           91.85052436499743       -7.08356363317437       -0.19775073786231
C           92.61062666114805       -8.04572604197109        0.63927457724811
O           93.30634557955237       -7.46476718700703        1.62773369802273
O           92.61986629995475       -9.23730279274939        0.46542955332319
C           91.86885859516856       -5.71463374811581        0.06086092998123
C           89.94288276727661       -2.74559056517452       -0.22496636928949
C           88.67792326077659       -3.44570108201287       -0.09571373936159
C           87.73433495064394       -2.49759460740723        0.08214389985530
C           88.42259793704839       -1.22316026587546        0.06198167814618
N           89.75023549574838       -1.40442043132703       -0.09023463037712
H           86.69861322532414        2.70502750628844        0.10966509248091
H           88.59163494536840        4.56365457786198        0.40302363219756
H           90.43696771814754        0.76708116188596        0.33987278233225
H           92.54622359639234        5.31294537160274       -0.75184739315626
H           93.29644749406145        9.72726138462747       -0.97381728776336
H           91.29712539367762        8.71149832895537        1.53749858959336
H           89.99178793741920        7.22448747060646        3.02700525976546
H           89.97404023378471        4.78985372092500        2.64110455579008
H           93.85676562315322        4.37711443756705        1.34853196443194
H           95.73443508577979        2.48224031196127        1.02480731858257
H           95.69539234066478       -2.51517101942324       -0.82264876174290
H           93.80282091916952       -4.37035844122038       -1.14115499337042
H           91.96203667193446       -0.76847270189502        0.06838159638702
H           89.84525350500709       -4.67293302300751       -2.44709418311068
H           89.80601784612071       -7.09873996797795       -2.90217802414329
H           91.10405754143451       -8.65159620692109       -1.45489783632672
H           93.77058785455715       -8.15733615262581        2.12554064513223
H           92.43480488487458       -5.33152763298096        0.90181046829771
H           88.55258696239851       -4.51615094594004       -0.11717716714965
H           86.67508806245112       -2.62621135799734        0.23300782911809
C           98.67584423753489       -0.00725975372160        0.08816278226553
C           99.32009581748540        1.24492926113424        0.12808757324684
C           98.69924349062310        2.51990463849523        0.11513418844639
C           99.67821509045356        3.46774455685134        0.23959945681212
C          100.92732392742640        2.79658699799608        0.33596509432868
N          100.66225701693081        1.45689067623391        0.23979433103354
C          102.19016210316306        3.37505896399044        0.51583122885656
C          102.22068680921001        4.84389781234929        0.71902072883468
C          102.94669162016625        5.66264550275394       -0.14215349169552
C          102.97672714717027        7.04297317020773        0.05110695305476
C          103.77097820609778        7.86159676978906       -0.89951520561908
O          103.72477549940729        9.17658715452069       -0.64189472554578
O          104.40609050023578        7.41165664318693       -1.81864933150269
C          102.27781223680218        7.61600659551788        1.11356575777907
C          101.55547057717574        6.80358750606861        1.97336002975777
C          101.52462797236863        5.42991464062195        1.77955608428049
C          103.40565404923728        2.68806679104737        0.51845425579551
C          104.68700064754783        3.30950266668556        0.80138213928031
C          105.61957904638564        2.34686486585593        0.64780241051024
N          103.57849711682877        1.36699455344358        0.23951386663408
C          104.90766893059255        1.13973291808323        0.27947951179503
C          105.55659316315719       -0.07498608191795       -0.01993700400760
C          104.91135129737040       -1.29970581254450       -0.27669757191284
C          105.52862335684101       -2.52750193559003       -0.62745409483599
C          104.55016472055530       -3.47860385075718       -0.72781006453542
C          103.30510461733688       -2.85797182925490       -0.43629945930023
N          103.57133910342371       -1.53784127228546       -0.19204544765296
C          102.04409942394444       -3.46614828235426       -0.38609034904404
C          102.01297439203113       -4.93643687286155       -0.58058297199975
C          101.26748254694786       -5.49754060781974       -1.62049319551180
C          101.23890590627599       -6.87221909892997       -1.80888327997305
C          101.95226657292163       -7.70466351861961       -0.96261630878607
C          102.70032374772046       -7.15677755557488        0.08055750717254
C          103.45357716610050       -8.08058825549108        0.96581400234144
O          104.14772388626950       -7.45482573157864        1.92706474933906
O          103.45997051060655       -9.27922575479084        0.84855527790362
C          102.72974881693625       -5.77665645419939        0.26929289362942
C          100.83231622427294       -2.80744040899997       -0.17133334864352
C           99.55799926032326       -3.48629516097334       -0.02104374941945
C           98.62512095471597       -2.52050667966553        0.11232883307646
C           99.32965381794160       -1.25629938635735        0.04738670950608
N          100.65529821583829       -1.45951691296285       -0.09253949189402
H           97.63983454876869        2.68645485667324        0.01228365180422
H           99.54821014395866        4.53753792491470        0.24943915576800
H          101.36759499569236        0.72786800630138        0.24736796879993
H          103.48422817942230        5.23657019644180       -0.98219595755540
H          104.26593091774266        9.63958658312067       -1.30193267641566
H          102.30370190348457        8.68853549182725        1.26314780736873
H          101.01350639492657        7.24122351402873        2.80409489384780
H          100.97073213413947        4.79966685179461        2.46645403351500
H          104.83109984926602        4.33663178523495        1.09468038368524
H          106.68609191177205        2.41822143389944        0.78592611185616
H          106.58556448425250       -2.65906505583799       -0.79019813253187
H          104.67809988792078       -4.51558854557676       -0.99184905285556
H          102.86868855764877       -0.83755430645936        0.01986224239016
H          100.72044702565016       -4.84688710839296       -2.29352620686262
H          100.65863385890873       -7.29217122991347       -2.62255177983687
H          101.94133441335781       -8.78051756775008       -1.09592972492854
H          104.61056955426658       -8.12227223052096        2.45920049346333
H          103.29791988079216       -5.35620655284978        1.09064464587330
H           99.41916191971661       -4.55509011908105       -0.00015565428804
H           97.56332052739685       -2.63023835083157        0.26084967909161
