165
 energy: -293.481390206003 gnorm: 0.000417206457 xtb: 6.5.1 (b24c23e)
Co          27.37682259093173       -0.02344109615322       -0.01470261203746
C           24.01021023305331       -0.04876046734510       -0.04493710115644
C           24.67580470082679       -1.25150783442163       -0.15203271769503
C           24.02415598256264       -2.51994685898986       -0.27825891816422
C           24.98216942292073       -3.46527483132819       -0.13330635344186
C           26.22037798030034       -2.77334877112431        0.07829864141167
N           26.02813309592776       -1.41707795285138        0.01149035976392
C           27.39682955560854       -3.38568763908475        0.48990574274858
C           27.40773411276652       -4.85234344933436        0.69911861663068
C           27.58335865259667       -5.40308864972175        1.96726057073923
C           27.58759079637227       -6.78204020029307        2.10856442621831
N           27.43514838406850       -7.61554671842168        1.08469199372560
C           27.26851603647233       -7.09745114996499       -0.12779297043744
C           27.24533305296572       -5.73274434002449       -0.36920292290820
C           28.56191064574225       -2.66666577040958        0.70976242460426
C           29.80219691286946       -3.24728821440699        1.12971503031738
C           30.74854439309451       -2.28698467397760        0.99818641437909
N           28.74398277993295       -1.34513542105078        0.37135151236699
C           30.08738104863858       -1.12540643847137        0.49207266872221
C           30.76013142665532       -0.00380861340089        0.00169392801085
C           30.07705205839142        1.11163118468109       -0.48770464854873
C           30.72232918558748        2.27202568481334       -1.01581218081855
C           29.76547495478891        3.22233751805790       -1.14956948899947
C           28.53892492012777        2.64033756240030       -0.69360028132331
N           28.73249978480436        1.32059818151349       -0.35820369001695
C           27.35898781914661        3.34471369349644       -0.50061383702449
C           27.35935211233975        4.81046085268801       -0.69565925326324
C           26.50639623083672        5.42493188639737       -1.61198709155853
C           26.54942549810507        6.80271193484746       -1.75634624620822
N           27.36837716500485        7.57978589933353       -1.05495737773248
C           28.18358898929172        7.00256203404311       -0.17793019828917
C           28.21758730161348        5.63357759301707        0.03359171158718
C           26.18109951891613        2.70828002951793       -0.12937669670657
C           24.93862574256233        3.37973953121139        0.11859957789227
C           23.99090435027185        2.41950897698597        0.23424773248017
C           24.65739835256507        1.16285378179872        0.07473730614626
N           26.00811390411074        1.34877300788669       -0.08052182210355
H           22.92665768165627       -0.05671465944455       -0.04889772661853
H           22.96534760640250       -2.64965997124091       -0.43632663668206
H           24.87079207000937       -4.53738137541954       -0.14206809918290
H           27.69993623855699       -4.76140857923141        2.83239577296705
H           27.71845457586551       -7.23594785526049        3.08651595301499
H           27.14967680913842       -7.80414008212631       -0.94391285652512
H           27.11846383798966       -5.35463753096484       -1.37657967404554
H           29.92625005490270       -4.26628644636764        1.45806545539187
H           31.80599522542747       -2.35204986709244        1.19801248942523
H           31.77520335426324        2.34056848198939       -1.23754612380985
H           29.87012288045784        4.22887417957611       -1.52056670190010
H           25.83171780798756        4.83084072465058       -2.21678136272710
H           25.89781719234903        7.30328470828887       -2.46657318850769
H           28.83929862493563        7.66366375920616        0.38114520387501
H           28.89014628223610        5.20816398543400        0.76892719357125
H           24.82008142966567        4.44884954594898        0.18835060927112
H           22.93230108369695        2.53204775245814        0.40622885758804
Co          48.98351970171763        0.05042460201547       -0.01350818921515
C           52.35624168434395        0.05707538876343       -0.05799595957169
C           51.69283455290513        1.15678310950286       -0.55849874817904
C           52.35166698900311        2.30877408065049       -1.09526994026577
C           51.39705120076672        3.24988708815908       -1.28195331358005
C           50.15421511151196        2.66894631076653       -0.86465480286074
N           50.34012832322546        1.36926653573353       -0.46847857142739
C           48.97407862638918        3.38380358639974       -0.71000453045338
C           48.97146325381387        4.83631004088511       -1.00308013857344
C           48.78068385994918        5.77677738360596        0.00772317662517
C           48.78806382262368        7.12468856162488       -0.31547766298044
N           48.96509562039475        7.57123118915626       -1.55466022626153
C           49.14526580442442        6.68005857564680       -2.52398756803959
C           49.15901876966582        5.31224709219078       -2.29953085893972
C           47.79846802602537        2.78246566864098       -0.28882552746084
C           46.55469312169570        3.47550176698032       -0.13403515826702
C           45.60335997679813        2.53136596151826        0.06043929922171
N           47.61266947723994        1.42604182875088       -0.14344529066756
C           46.26528130552039        1.26597874605262        0.01717158239201
C           45.59089261132116        0.04261912810889        0.00806218803571
C           46.27328750641060       -1.17623401276656        0.00059453418757
C           45.62362311767587       -2.44686167697609       -0.06290188902036
C           46.58179559490378       -3.38447311108705        0.13291999524942
C           47.81412563200653       -2.68045365266391        0.32294359179370
N           47.62087367871175       -1.32649781072181        0.17125176191322
C           49.00235297883186       -3.27900046819630        0.71523113333239
C           49.00872654636188       -4.72515767218845        1.02501693086398
C           49.83704366165134       -5.61094343190612        0.33629902505243
C           49.80246320496172       -6.95827300864391        0.65906441395953
N           49.01419057146834       -7.45640291995314        1.60618672870790
C           48.22301956265477       -6.61892837346057        2.26905877209009
C           48.18311488425848       -5.25713516072632        2.01530764396544
C           50.18595094541459       -2.55911524973086        0.81704832678080
C           51.43342581840707       -3.11374985065102        1.25530563654595
C           52.38099067519178       -2.17443429800674        1.02578937028451
C           51.70912732207440       -1.04279107453409        0.46307711978358
N           50.35638590270285       -1.26455179194445        0.39836870850660
H           53.43979670510868        0.06037270054850       -0.06817443190233
H           53.41227872536565        2.37596573066320       -1.27815558969145
H           51.51298792950645        4.25732553165739       -1.64725503398433
H           48.64296136791806        5.45808276117811        1.03402669848037
H           48.64525010990731        7.87736042260321        0.45435207535253
H           49.28510653398940        7.07608728021297       -3.52556257020069
H           49.29861742594544        4.62133873567979       -3.12232582635157
H           46.43326577350328        4.54487778187275       -0.19017519493706
H           44.54395335830164        2.66400539368223        0.20852148214176
H           44.56898325304134       -2.58827107204156       -0.23483868482153
H           46.47491224481729       -4.45681249449700        0.14689557957429
H           50.48591340375884       -5.25243241216412       -0.45388447491899
H           50.43508546497232       -7.66763627755522        0.13352377850071
H           47.59235722850288       -7.05549134076668        3.03797416965437
H           47.53102017278287       -4.61040027563840        2.59020111009724
H           51.55451359344903       -4.09745709109974        1.67901384924114
H           53.44255612081857       -2.22600173209064        1.20817205519698
C           32.16598490462052        0.00063613265696       -0.00219905270956
C           33.38286163309469        0.00383960357418       -0.00655162209552
C           42.96769203557913        0.03041441400296        0.00100406201725
C           44.18513160447379        0.03726368951147        0.00442009139516
Co          38.17511481619470        0.02513211697984        0.00691564781946
C           34.78791767446141       -0.00011138982203       -0.01374301870799
C           35.47088796116552       -0.70920986445900        0.97826218094764
C           34.83075907492584       -1.39466416743821        2.05508846094866
C           35.78917086677542       -2.12854266662137        2.67325222583395
C           37.00910711236768       -1.89406644802616        1.96259741951476
N           36.81192537432361       -0.96867961029136        0.96558349912863
C           38.18577408401788       -2.60678111578277        2.15494865959387
C           38.19703237355992       -3.72679018243011        3.11964446251023
C           37.32017074513178       -4.80402767098313        2.99444231800456
C           37.37005291116647       -5.82745704694767        3.92771264992840
N           38.21711771707923       -5.83343741143828        4.95187437377073
C           39.05452718931460       -4.80932768890522        5.08033019695747
C           39.08416829377115       -3.74287839817991        4.19598978815786
C           39.35464509451131       -2.28851358376725        1.47629965424891
C           40.58231074437328       -3.01532439235372        1.59248952358660
C           41.53569333388116       -2.26888143578553        0.98304001779656
N           39.54092944018411       -1.15276297958609        0.72287086478425
C           40.88540620813536       -1.09909853823395        0.48425231768576
C           41.56306878446635        0.02005830140139       -0.00942911278495
C           40.87630151237941        1.12589774976717       -0.52062318537814
C           41.51383662160328        2.30006054885120       -1.02492438144942
C           40.55976005503257        3.01463618206039       -1.67142453683117
C           39.34351976557706        2.26829087297431       -1.56416265256311
N           39.53818177116666        1.14431295339258       -0.79775904365799
C           38.17423693128872        2.56108417142653       -2.25491311501451
C           38.18112302745772        3.66437995782598       -3.23868084691326
C           39.07200951544091        3.66753711542343       -4.31197751436550
C           39.03940470969803        4.71885532193110       -5.21423421003583
N           38.19621882328511        5.74051124945456       -5.10554041295904
C           37.34695726617947        5.74790843068076       -4.08322263847106
C           37.29972560643589        4.74011163526517       -3.13302162451960
C           37.00064341433072        1.85005254857289       -2.04304777012243
C           35.77305625008339        2.08291017291118       -2.74208053060563
C           34.81580895657549        1.37388050388762       -2.09505969307551
C           35.46490466517082        0.69812663927778       -1.01695683293688
N           36.81064616864484        0.93375417454136       -1.03478448489374
H           33.78213469287844       -1.31872423634131        2.29357228826546
H           35.68823282527516       -2.77172064491383        3.53216266143213
H           36.62157349381536       -4.84874916085815        2.16749365698519
H           36.70061547013677       -6.67895847551615        3.84871440531193
H           39.73187762964015       -4.84129294799442        5.92864553037720
H           39.77450634056398       -2.92189483289698        4.34879674075759
H           40.69162103926259       -3.96827232535819        2.08389683150256
H           42.58928369503768       -2.47393697118771        0.88529127904890
H           42.56038270269475        2.52932206571864       -0.90705638764334
H           40.66125738266889        3.96054789298681       -2.17795186619353
H           39.76777821296902        2.84823750702860       -4.44830830323219
H           39.71952848936387        4.74056019268529       -6.06064960513097
H           36.67310670980801        6.59727817865411       -4.02013558304031
H           36.59965316683780        4.79614154890932       -2.30799536550897
H           35.66643188595583        2.71226935846867       -3.61041602727223
H           33.76256092205433        1.30703620045581       -2.31510535927857
