320
 energy: -614.775863661649 gnorm: 0.000461254105 xtb: 6.5.1 (b24c23e)
C           64.73165217076942       -0.21027823870406        0.11747678182923
C           65.32978419318826       -1.09217771264051       -0.77321418098084
C           64.66577043171641       -1.97885336045410       -1.66705456679915
C           65.61866805708559       -2.66672585115221       -2.36387867899113
C           66.89647459056593       -2.23312877721093       -1.90796051368747
N           66.67073837841887       -1.27693407955432       -0.95824584860512
C           68.15521616126338       -2.66822363241071       -2.33671702986349
C           68.18237549095184       -3.72672813676138       -3.37669115356591
C           68.79533763521515       -3.47122749269272       -4.60669455948683
C           68.82207706358635       -4.45846722560312       -5.58352548195213
O           69.39916237232931       -4.27823657622465       -6.81334780284647
C           68.24607969727701       -5.70259263617542       -5.33959111591299
O           68.26292321251799       -6.69518949159676       -6.28395048397477
C           67.63539608152294       -5.95964908018517       -4.11101402254159
O           67.08099700423512       -7.17490744739985       -3.88189976945171
C           67.60075879569591       -4.97128743292485       -3.13403959084548
C           69.37467974844891       -2.17925935255561       -1.85979272140006
C           70.66847861627409       -2.70386118078283       -2.25733704284529
C           71.59437265462012       -1.98249604954769       -1.59168729140040
N           69.53689730898068       -1.17316803113386       -0.95740632923129
C           70.86626828320975       -1.02419813493139       -0.78340827359023
C           71.50927810498683       -0.06675774562737        0.02557375614123
C           70.88300532716021        0.88975803667619        0.84558822093220
C           71.53512318554507        1.87322135725657        1.63571497874587
C           70.57653657264453        2.58332686293062        2.30359454210265
C           69.30762366554293        2.04474952451095        1.95278976636997
N           69.54430735089684        1.03338369177932        1.05940691920859
C           68.05122191468880        2.45852317443046        2.40910476341661
C           68.02902365539364        3.55596230387719        3.40692559318520
C           68.68074370103365        3.40583470425291        4.63173190879554
C           68.65699790434491        4.43479727578884        5.56576940281198
O           69.28216368868898        4.29626601901428        6.76061327355124
C           67.98525671315521        5.62313963248130        5.27460959140104
O           67.98192433961516        6.62144423819267        6.21312602854627
C           67.33718187027685        5.77427634997514        4.05129692341696
O           66.70354889986072        6.96981906300445        3.83530829170089
C           67.35405119413555        4.74542252926364        3.11804423260999
C           66.83254697902349        1.90899610188884        1.99614812117924
C           65.53580341077725        2.29611194802484        2.52971532688287
C           64.61791963828166        1.54775310175393        1.88506777881169
C           65.35301445939145        0.69637987418674        0.96660220515643
N           66.68359217680387        0.93466358336573        1.06734704483995
H           63.64689485938932       -0.23720198970896        0.14435215496572
H           63.59482316019116       -2.06371557857587       -1.76039815957045
H           65.45661478018400       -3.40652862092485       -3.13084672705180
H           67.40352791130415       -0.77766990966753       -0.46528527570110
H           69.23399565332323       -2.50099079199110       -4.80814286611657
H           69.77194718614142       -3.39022768301066       -6.89073168806265
H           68.72290218497669       -6.35459966417386       -7.06765029702234
H           67.21007590647639       -7.72355926625257       -4.67316957261791
H           67.14083200002021       -5.18910396394729       -2.17878028573173
H           70.82646413118735       -3.52348392815112       -2.93959055204343
H           72.66813586777108       -2.07362164170769       -1.62786891138441
H           72.60269555189662        2.01452858922278        1.68120659887645
H           70.73237174868962        3.41096353145553        2.97600390467162
H           68.81708839444266        0.47289618282979        0.62730804164788
H           69.18904637141500        2.48219158934802        4.87679131717160
H           69.14528000001506        5.11058680085052        7.27235942210159
H           67.47061911051213        7.36516411507949        5.85636134352240
H           66.27599776147058        6.98052833706107        2.96893224871716
H           66.86138304138920        4.87677945905634        2.16183795055123
H           65.37486336669251        3.02994586048705        3.30311068087214
H           63.54576605983572        1.54286529338583        2.00476478621805
C          114.98336770682964        0.04684899696013        0.19298505921682
C          114.36762089236308        0.91504431582113        1.08516033093466
C          115.01484026903928        1.80832424104387        1.98468483356267
C          114.04916701613531        2.47685693288961        2.68276525125231
C          112.77998680128984        2.00601559496669        2.23997260209972
N          113.02336764563172        1.07386537433619        1.27092688713972
C          111.51365984957610        2.41293399691312        2.67468535019344
C          111.46933800264013        3.42428721091405        3.75962988475046
C          110.83743983901783        4.65162386746636        3.54033133221716
C          110.79323035368648        5.59715150195910        4.55702898764511
O          110.19609759469128        6.82215868390383        4.41370095743675
C          111.37187406444076        5.32509942649464        5.79411547579857
O          111.33827210772635        6.23872872342979        6.81482930213908
C          112.00243100896179        4.09958442219249        6.01476957483024
O          112.55968555122691        3.84294713968410        7.22346803149045
C          112.05337244916875        3.15366906173371        4.99752856125773
C          110.30314774325625        1.93437343361304        2.16542829957067
C          108.99970553825324        2.31393517820796        2.67982594345892
C          108.08829564365763        1.64595260136983        1.94252109111498
N          110.16098923807871        1.03933957438724        1.14992054633848
C          108.83515311454975        0.85165225877018        0.98668528853514
C          108.21043302778064        0.00201674020861        0.05336964955404
C          108.85033510745683       -0.85159813022050       -0.86267939449161
C          108.21173915128199       -1.66679324356194       -1.83496214007917
C          109.18191991617037       -2.32409489056967       -2.53886564216421
C          110.44516675951013       -1.93699058963247       -2.01142107826251
N          110.19269192896030       -1.04166971638618       -1.00564048653607
C          111.71078552416864       -2.35069632886027       -2.44108522941716
C          111.75249801290913       -3.33958956778223       -3.54605328575361
C          111.14862825759283       -4.58871440697253       -3.39785388967182
C          111.18577556018879       -5.50967837967248       -4.43831918542962
O          110.60726415568193       -6.72751917714567       -4.30164569984329
C          111.82211076075511       -5.18042713072766       -5.63630743479593
O          111.83789825013837       -6.10590454680219       -6.64647906136020
C          112.42292649467343       -3.93298764339207       -5.78503698958387
O          113.02365611765448       -3.67976243316885       -6.99038344128971
C          112.39366537209717       -3.01310914905723       -4.74452596770703
C          112.92150307597164       -1.89343576473029       -1.90918778676918
C          114.23081992577490       -2.37967798677454       -2.31561806587814
C          115.13544840960999       -1.70560091066896       -1.57706252593536
C          114.38007128987776       -0.81546582051538       -0.71338523468010
N          113.05084209908343       -0.96119400717413       -0.93539909737583
H          116.06862677680628        0.04864864365204        0.21377354862220
H          116.08388258387262        1.91955884810232        2.07204961498289
H          114.19699658499685        3.23554519460726        3.43400024560894
H          112.29965567124366        0.57563894653942        0.76366472465657
H          110.39748270672223        4.87593762712318        2.57574400977297
H          109.81679468714076        6.91793554304569        3.53023336124649
H          110.86271946676867        7.02305462374563        6.49782888455181
H          112.41663637343594        4.61507964506673        7.79536202400360
H          112.52780927994873        2.19949143250245        5.18726205497348
H          108.82555208578502        2.98469118751896        3.50557245345183
H          107.01369031661805        1.66034460329791        2.03066538189849
H          107.14514801245767       -1.72758042474765       -1.97886378650005
H          109.03807150723507       -3.00863662636229       -3.35866896385780
H          110.91300741116767       -0.58048308459944       -0.45963752100279
H          110.66687754007164       -4.86201875351197       -2.46793993379489
H          110.73945250726602       -7.22303656689559       -5.12669581819894
H          112.31560286405664       -5.72002482141041       -7.39792353546435
H          113.41475463671556       -2.79634545367084       -7.00019221720484
H          112.84883446740120       -2.03819354954924       -4.87379867716282
H          114.40863533485913       -3.14481823079225       -3.05421761240737
H          116.21113222781509       -1.78758085782270       -1.58671742527928
C           72.91910367820378       -0.05061862127602        0.01969900871972
C           74.13580197179144       -0.03449916846292        0.02221574651872
C           83.80667619158154        0.03599693758010       -0.04283727554780
C           85.02465742913253        0.04278232731411       -0.04827771248408
C           94.70012889582974        0.02647307183118       -0.09354859889182
C           95.91862290434815        0.02173099116581       -0.08969184041536
C          105.58365995144041       -0.00370364111905        0.00512495895426
C          106.79988650425601       -0.00272439498630        0.02561188972984
C           75.54478820487907       -0.02521967261790        0.01929368517661
C           76.17661227657823       -1.26516944020774       -0.19142587175534
C           75.53771087844362       -2.52458618294817       -0.32510530485413
C           76.50608768084741       -3.46875839298429       -0.53366454117901
C           77.76533448488905       -2.81029914769879       -0.54281486897621
N           77.51672671300305       -1.48305763952329       -0.31526092501425
C           79.02513535582979       -3.38629925249023       -0.75104362694199
C           79.05018624518330       -4.83778195185981       -1.05394657776309
C           79.75468758059047       -5.71362604434339       -0.22655846560723
C           79.78547033914374       -7.08022424429703       -0.48917309274158
O           80.45950648621094       -7.94273068354661        0.31507201867270
C           79.11003426249985       -7.58759268799246       -1.60409555731927
O           79.12591831123443       -8.91484739236423       -1.89083161197348
C           78.41075503163312       -6.70407320461792       -2.43071191888931
O           77.77553815437903       -7.26483054570057       -3.50891141589990
C           78.37001668411291       -5.34270182802791       -2.16420419935957
C           80.24255476499322       -2.70471578935491       -0.69592474457701
C           81.52124002257170       -3.30571150864665       -1.02725882146185
C           82.45422520885919       -2.35046439004585       -0.83140391543891
N           80.41816163105014       -1.40322856621364       -0.33479277892729
C           81.74525372646580       -1.16910851973438       -0.38367514523542
C           82.39987935299756        0.02967080318872       -0.03351197981276
C           81.76776879503986        1.23301774449874        0.33518924147397
C           82.40770246666079        2.42750536950641        0.75421157695281
C           81.43961289327895        3.36552263990411        0.98854038115297
C           80.17832423022551        2.77164237266230        0.71246352241311
N           80.42671922069192        1.47768430800188        0.33838417606801
C           78.91793645809238        3.37623895022252        0.79803148635941
C           78.89598572740331        4.81753318867423        1.14934408863400
C           79.55848713960941        5.74761557930550        0.34717571876722
C           79.53300751275678        7.09748218164736        0.67721303847408
O           80.16742741141843        8.00918833540130       -0.09970882621641
C           78.84963308694549        7.52181144709936        1.81792495339696
O           78.84473663927386        8.85803241850616        2.12043534658154
C           78.19142638588812        6.59335460485745        2.62065818607392
O           77.54665885581656        7.08428444500607        3.72529625247984
C           78.20929213303333        5.24445201254107        2.28967491872989
C           77.69740788947576        2.73299822324834        0.58009644086345
C           76.41324993838852        3.41007620556229        0.58036143500726
C           75.47980127272309        2.45954064991415        0.36524937681912
C           76.19441125405301        1.20660461579290        0.22751010720908
N           77.52433188857928        1.40440589070864        0.34059631147498
H           74.47405039643711       -2.68404485628560       -0.25556133730259
H           76.36181489781859       -4.52963210903411       -0.65713997774166
H           78.23366043613586       -0.76941699552127       -0.23855549488688
H           80.27070827756793       -5.33260885784917        0.64750300850666
H           80.87910511176077       -7.47818266636517        1.05107026681883
H           78.60068954081090       -9.05841845356279       -2.69456005289112
H           77.31847929576800       -6.59082443640475       -4.02832678436545
H           77.83412855944884       -4.67729663442376       -2.83093437813765
H           81.66344582574177       -4.31385627205225       -1.38151791090231
H           83.51923063243569       -2.41208236488948       -0.98609149490815
H           83.47251329034268        2.54520889579404        0.87072563251401
H           81.58530611373021        4.37626111959136        1.33281220279446
H           79.70921480242917        0.79981484197748        0.10438684811421
H           80.07646605741907        5.43312513937134       -0.54967593274746
H           80.03004503240837        8.88914770352372        0.28822872159632
H           78.32582893010488        8.97873781357121        2.93164410522941
H           77.11349351809059        6.37296795092835        4.21524260485673
H           77.70745639074514        4.52597999932814        2.92702149569910
H           76.26717562879047        4.47061876497269        0.70696232135081
H           74.41054196487076        2.57432592301918        0.28705163694917
C           86.43106489171473        0.04113654793714       -0.05864289193294
C           87.05893423301738       -1.21961909387105       -0.02048727572634
C           86.42061367389604       -2.47928779819159        0.10666387034051
C           87.38384850715171       -3.44955840647189        0.03908435910845
C           88.63921330174914       -2.80850844624651       -0.13790790565087
N           88.39482541053981       -1.46091007190836       -0.14297956623567
C           89.89044164556790       -3.41674933951507       -0.30396342840918
C           89.90506215433540       -4.89647502281045       -0.38433605200805
C           90.66652618113331       -5.63991394624919        0.51914673138319
C           90.68837733982714       -7.03051039187478        0.46535593924381
O           91.41758328149125       -7.76367236654576        1.34618161535860
C           89.94536777073463       -7.69863165778505       -0.51362821051551
O           89.94984427522274       -9.05377331656028       -0.59542865862839
C           89.18946332497330       -6.94788844948592       -1.41832015204748
O           88.49029487130774       -7.66352931991998       -2.35558104292970
C           89.15807332047820       -5.56181732312771       -1.35928520696145
C           91.10856820913490       -2.73972402678166       -0.39588235844809
C           92.37414372912407       -3.38489969193455       -0.69131762561155
C           93.31610673676624       -2.41959456583782       -0.63744859770522
N           91.29877466019103       -1.40468284456279       -0.20534494401289
C           92.62576155924299       -1.18890191051888       -0.31243181341113
C           93.29383922013827        0.03384784744776       -0.09339835357486
C           92.66574284242263        1.27539095390292        0.13062736743665
C           93.30331588676982        2.50544995765798        0.43100327558785
C           92.34009943424468        3.47535083698958        0.49995507171909
C           91.08451941144061        2.86443982844660        0.23800076562439
N           91.32894261599581        1.53058705064614        0.04761560369867
C           89.83298771960376        3.49100680257407        0.16181153237090
C           89.82479871253241        4.96968254940569        0.26983205779983
C           90.57558605858377        5.74368129966395       -0.61669829069590
C           90.56628178506752        7.12958306509388       -0.51466733281807
O           91.28732284916235        7.88891922777659       -1.37513587351659
C           89.80961704368981        7.74859263200362        0.48180795173605
O           89.82331762773336        9.11595419531394        0.56136340379890
C           89.06198630843340        6.97692802124500        1.36799447882601
O           88.34866426561290        7.65464345532555        2.32147384792609
C           89.06446103989084        5.59181944139800        1.26472623908457
C           88.61234102521955        2.83345996030332       -0.00429289674979
C           87.34200051182374        3.51096873368176       -0.18900580797297
C           86.39941010539036        2.54658865520770       -0.24664650643308
C           87.09498043606085        1.28388977717858       -0.10521155522047
N           88.42349963812333        1.48474353335774        0.00888226307257
H           85.36136833374142       -2.62015471815759        0.24536488465921
H           87.23837115752283       -4.51448816093625        0.11846557729153
H           89.11128329128260       -0.74719817597628       -0.22234252719841
H           91.23456665184881       -5.13301056473715        1.29104433771462
H           91.88379732502840       -7.19435664774265        1.97231844162118
H           89.37613981368682       -9.31591613997640       -1.33349883265942
H           87.99653733195072       -7.07545335054203       -2.94161194854454
H           88.57747971236202       -5.00333682224381       -2.08418200992459
H           92.50202633553336       -4.42869637411840       -0.92841377054010
H           94.37535629716767       -2.50634195286186       -0.81625747312217
H           94.36252387067638        2.62646819315713        0.58592717866083
H           92.48573803240036        4.51923118227847        0.72454450036636
H           90.61274493379905        0.83494611927339       -0.13130842706739
H           91.15128448019084        5.27680647707090       -1.40548169894926
H           91.14614573111895        8.82333095171401       -1.15007763075446
H           89.24549364068123        9.37867215969564        1.29551850851492
H           87.84955901131313        7.04190854112418        2.87735601450708
H           88.49380997199381        4.99785692205735        1.96890094655953
H           87.21106320285760        4.57681371406109       -0.28348646684193
H           85.33642688322320        2.65520695262716       -0.38971812975705
C           97.32502161482668        0.01377971405757       -0.08139798230579
C           97.95059690224210       -1.24814876482980       -0.03301602232212
C           97.30939285872491       -2.50699695764381        0.08749814212720
C           98.27149875691910       -3.47889503174693        0.03345425857785
C           99.53027895590628       -2.84017908921138       -0.12823066624309
N           99.28754693083974       -1.49207261236001       -0.13970530018614
C          100.78319416700860       -3.45182278658829       -0.26529604948920
C          100.79703503335044       -4.93256140185075       -0.32887242278314
C          101.53191605269619       -5.66810556606191        0.60260284598419
C          101.55261266453739       -7.05925282215094        0.56327201877047
O          102.25566446884746       -7.78481938561666        1.47097594614236
C          100.83475648448781       -7.73595239325664       -0.42857244030434
O          100.83871958985914       -9.09183872317798       -0.49647775387366
C          100.10481305521873       -6.99309263057595       -1.36060485590075
O           99.42901325605909       -7.71678026059878       -2.30886801230821
C          100.07472155120804       -5.60638358549248       -1.31644648388225
C          102.00403070658379       -2.77633364506214       -0.33678787111969
C          103.28038627806440       -3.42644937246285       -0.57332230643449
C          104.21996495957897       -2.46012394646418       -0.50586159528692
N          102.18554374453076       -1.43813575760422       -0.17034482229413
C          103.51596846065830       -1.22194899335989       -0.23931867435387
C          104.17416171824949        0.00140372449692       -0.01277445018246
C          103.55094571517094        1.24343895588429        0.20771045248415
C          104.19645739143216        2.47773169867270        0.47766883829266
C          103.23588769235839        3.45001220238383        0.54453328919697
C          101.97580551561161        2.83868578768031        0.30214569704926
N          102.21445966679725        1.50172858748547        0.13001615429429
C          100.72483656535630        3.46377036430644        0.21591937103977
C          100.70703281916390        4.94185079953574        0.33368968754947
C          101.45598868480701        5.73055700216972       -0.54098288059383
C          101.43243420648018        7.11543780007929       -0.42635277106111
O          102.15189854828240        7.88986522213776       -1.27502411607038
C          100.66257489823249        7.71839441741869        0.56974640963251
O          100.66146528663062        9.08528766491259        0.66065769752363
C           99.91615565810370        6.93188240976942        1.44374305893328
O           99.18797533424882        7.59402722922261        2.39694034262194
C           99.93361425295944        5.54792145600833        1.32848416177126
C           99.50830251620043        2.80431377711912        0.02650670353688
C           98.24324377721872        3.48298725036110       -0.18650593849923
C           97.30284973016371        2.51890024786259       -0.27367074519223
C           97.99342725313603        1.25533241554627       -0.11795273919219
N           99.31881088672039        1.45544226291585        0.02923246133621
H           96.24864401917884       -2.64636805898912        0.21390261242142
H           98.12313807185680       -4.54346048055903        0.11230943715820
H          100.00673393926179       -0.78029569616527       -0.21170190274506
H          102.07956147131186       -5.15464786190167        1.38480911766299
H          102.71727284020220       -7.20996055463965        2.09551325111392
H          100.28599353925583       -9.36044526691566       -1.24807848282801
H           98.95647247949113       -7.13322462756589       -2.91648258687603
H           99.51459998029046       -5.05415949495342       -2.06196448287278
H          103.41708401779599       -4.47593625612141       -0.77789913151334
H          105.28774142514754       -2.55185677529204       -0.62481054411373
H          105.26006134448959        2.59974273119919        0.60342157065641
H          103.38641754745812        4.49739365685111        0.74873073493157
H          101.49494333534868        0.80701457710408       -0.03971748961214
H          102.04041118700881        5.27671608636723       -1.33093776602590
H          101.99835001396812        8.82057520082451       -1.04273665063384
H          100.07446118337327        9.33558842563430        1.39187122627161
H           98.69265948348043        6.97109564812391        2.94485137293252
H           99.36276302258743        4.94198312559304        2.02223568129120
H           98.11472949235272        4.54924733638604       -0.27943760101821
H           96.24489106732175        2.62869172147653       -0.44731276417909
