444
 energy: -780.133667716258 gnorm: 0.000625620011 xtb: 6.5.1 (b24c23e)
C           90.73210383534206        0.02347724734918       -0.05407945267257
C           91.33713624991111        1.01576204035008       -0.81688960479206
C           90.68994744056663        2.02088299793664       -1.58706284149128
C           91.65814023827998        2.78463665217837       -2.17929720624352
C           92.92222702794628        2.26758594393448       -1.78736882833871
N           92.68310750107226        1.20567801388599       -0.96895081402233
C           94.18999253927825        2.74669322180973       -2.16334445554659
C           94.20930659989209        3.86632910574283       -3.02440713132249
C           94.21599674661779        4.83037718440814       -3.76139638461942
C           94.22407720130285        5.95459077099932       -4.61817073737695
C           93.03006271730369        6.53409926735652       -5.06361532756051
C           93.09015623659694        7.63416341786886       -5.90027344492713
N           94.23493492596931        8.17615571007826       -6.30809797929512
C           95.37425378926937        7.63122284790995       -5.88895262891586
C           95.42375626728881        6.53089418117261       -5.05179353006205
C           95.41936608449345        2.20718313502714       -1.75133797416760
C           96.70161406620993        2.73826309879541       -2.17041946410767
C           97.64187392455595        1.97545790265328       -1.57411522355790
N           95.59230190529806        1.14795604099439       -0.92385346812339
C           96.92811009291101        0.98261523090404       -0.79440043895738
C           97.57776874419214        0.00389389679096       -0.01942457831955
C           96.94734047422797       -0.99123214274169        0.75236173178783
C           97.58809290532197       -1.99144690898231        1.52889356325127
C           96.61570200966301       -2.76394835560395        2.10476132510980
C           95.35611765194642       -2.25376147653825        1.69598369216734
N           95.60306963270241       -1.18449994897986        0.88304781602799
C           94.08967770991438       -2.74814600906594        2.05402884893955
C           94.06716993780149       -3.88122525146862        2.89565533550612
C           94.05244702346444       -4.86035022858898        3.61284523270608
C           94.02873687905384       -6.00492537036965        4.44145530663210
C           95.21326093956650       -6.60389150439855        4.88670235103629
C           95.13528266615253       -7.72538776279370        5.69289627361360
N           93.98193198517571       -8.27043979956748        6.07161267359531
C           92.85152076019399       -7.70662933419842        5.65317480928561
C           92.81985506631251       -6.58424303370557        4.84508730369827
C           92.85922425151058       -2.20709993081411        1.63970892479477
C           91.57041013840823       -2.74151736723597        2.04393146936710
C           90.63664636240951       -1.96478847237789        1.45776820048825
C           91.35828649082069       -0.96063426574767        0.69565796156221
N           92.69929570151970       -1.14035261399304        0.83180278883070
H           89.64684088692042        0.02621817595415       -0.05334407630755
H           89.62089475269181        2.13462161049189       -1.66988297605721
H           91.51951518511920        3.63233655646750       -2.83106544101544
H           93.40199941461329        0.63707902521302       -0.53414202510466
H           92.07557733133247        6.12450340203211       -4.75558910775272
H           92.17934446130886        8.10345953977294       -6.26096114363477
H           96.28955050694331        8.09856376161445       -6.24061140871386
H           96.37420349156363        6.11920391275208       -4.73454145864469
H           96.83443543852668        3.58001401026901       -2.83112535075438
H           98.71528245270626        2.05438651540385       -1.63825160260686
H           98.65615322930931       -2.09955261719517        1.62746966043627
H           96.75085529571660       -3.61249496545966        2.75592886254086
H           94.88678738929693       -0.61923118384763        0.43924715489341
H           96.17427240818930       -6.19291457611144        4.60170959994734
H           96.03830848728077       -8.21055002727195        6.05216880447639
H           91.92876459097577       -8.17696009460035        5.98061861015687
H           91.87626293404477       -6.15768854399465        4.52691146568802
H           91.43221806131316       -3.59399938184948        2.68990841181401
H           89.56197825662692       -2.03816657148721        1.51472102536501
C          194.04547595768193       -0.10806092779254        0.04572930736251
C          193.43872548412534       -0.95157449304211        0.96930739534621
C          194.08387310919966       -1.81284267279759        1.89895011792517
C          193.11412062443503       -2.46096740677597        2.61388390261787
C          191.85118661699215       -2.01315315408817        2.14148513520136
N          192.09242868970350       -1.10768636074641        1.15326781191038
C          190.58228425952561       -2.41346079276359        2.59709121461410
C          190.55717389012301       -3.36823063981688        3.63785209414099
C          190.53805846331315       -4.18714258723014        4.53317233662246
C          190.50886862527858       -5.14218943603116        5.57481612922229
C          191.69025477375442       -5.66277629227700        6.11612959348960
C          191.60682481726468       -6.59503212291225        7.13486397969143
N          190.45095598606224       -7.02740351757582        7.63245130827839
C          189.32343850657881       -6.53746500724476        7.12315564618665
C          189.29730809528240       -5.60245403505098        6.10386444539288
C          189.35432194113613       -1.94263568252927        2.10446770606271
C          188.07113100237086       -2.38467907956946        2.61419273196503
C          187.13246273371431       -1.72303084487296        1.90527955026132
N          189.18339287782649       -1.03581931013042        1.11177060299483
C          187.84809866229540       -0.88166466028696        0.96552219000223
C          187.19963761803334       -0.04297710242704        0.03957720123098
C          187.83172406341001        0.79268387957316       -0.90159180965059
C          187.19299759653745        1.64200026764771       -1.84207666192805
C          188.16709800862046        2.28242848622930       -2.55977587151280
C          189.42565286000851        1.84058494201269       -2.07531446167821
N          189.17638014985033        0.94276487731285       -1.07678759730929
C          190.69332279498059        2.24537025556648       -2.52858403043905
C          190.72114987738757        3.18941260081813       -3.57772755156080
C          190.74900905154553        3.99905972087813       -4.48155459080376
C          190.79086652481772        4.94033652428081       -5.53486714384124
C          189.61729724281423        5.45388933823478       -6.09951847287815
C          189.71539666810790        6.37207077917122       -7.12968449742344
N          190.87821195193831        6.79728803672555       -7.61723728912501
C          191.99840985824670        6.31405965536877       -7.08573964289856
C          192.00992187037966        5.39321636824378       -6.05349994882906
C          191.92259629181066        1.78543243035833       -2.02249299929812
C          193.21254769367454        2.23308696649651       -2.51824686286413
C          194.14472702056827        1.57632742926891       -1.79821422810459
C          193.42105611244503        0.72953451704199       -0.86595464016348
N          192.08035490589231        0.88527796190862       -1.03201318285411
H          195.13072956057911       -0.11392719624512        0.04462242223482
H          195.15268088419538       -1.91503808525594        1.99837658201586
H          193.25096686809619       -3.18581637331073        3.40031944293150
H          191.37468233750158       -0.61855128179178        0.62907222390169
H          192.65313931352455       -5.33824292693956        5.74038700219223
H          192.50741443742925       -7.01554886252011        7.57306942077369
H          188.39848232433462       -6.91170196999091        7.55241826855256
H          188.35585373362215       -5.22988438111944        5.71863574071654
H          187.93646809865376       -3.10358556909175        3.40650303418040
H          186.05902116244718       -1.78060686099279        1.98853204784992
H          186.12507808642778        1.74381928357329       -1.94865110057025
H          188.03381965414812        2.99848359111019       -3.35464611994810
H          189.89142547938286        0.45922386720155       -0.54343390390476
H          188.64906409324348        5.13482762829922       -5.73297195226180
H          188.82120635375452        6.78666370333432       -7.58624543250905
H          192.92940977149931        6.68217800853380       -7.50718731232425
H          192.94567889642363        5.02555649960638       -5.65007630008245
H          193.35267430531286        2.95238273871081       -3.30950042955786
H          195.21953623275155        1.63628032305361       -1.86699117310879
C          102.78108238901393       -0.01097846241856        0.02778140227492
C          101.55321963009627       -0.00457312921094        0.01623671639230
C          100.20800387668424        0.00002810829360        0.00523251403325
C           98.98457350418809        0.00424184753522       -0.00753969164539
C          104.12616156080965       -0.02185356294295        0.03597661573932
C          105.34970174382210       -0.03454032583178        0.04491905972871
C          118.87048783801229       -0.07252639266717        0.03324107336762
C          117.64164517719260       -0.07316139405958        0.03455710932562
C          116.29809867383270       -0.07355976915447        0.03803417052497
C          115.07369519710258       -0.07824323932077        0.03867171635674
C          120.21400814835660       -0.07475543059128        0.03079371638826
C          121.43841973211724       -0.08025928744856        0.03398442858753
C          134.95916866986099       -0.04091672457323        0.01471009538241
C          133.73028409578271       -0.04124910837874        0.01236158567526
C          132.38685264502192       -0.04471470800520        0.01521125279586
C          131.16241747880312       -0.05187845478287        0.01393676511399
C          136.30260096338839       -0.04393298107909        0.01449169958358
C          137.52702363677852       -0.05060787009753        0.01887570931749
C          151.04599641548526       -0.03343248005762        0.01452114250045
C          149.81709791297689       -0.03745296485517        0.01255040961581
C          148.47367010855010       -0.04538870855618        0.01561046817340
C          147.24924727584042       -0.05370777905216        0.01503100888406
C          152.38944670738545       -0.03618612305987        0.01397977100803
C          153.61389284134654       -0.04037845700164        0.01766252195792
C          167.13585440764325       -0.05341107872426        0.03390906698882
C          165.90698104870819       -0.05321932529318        0.03083098120856
C          164.56346477640628       -0.05573450863600        0.02939681877437
C          163.33904781564308       -0.06114568563393        0.02487065535689
C          168.47937329629744       -0.05581488520012        0.03603369929679
C          169.70373955030539       -0.05964113715993        0.04212906168888
C          183.22461206475677       -0.01854369186380        0.04679378559835
C          181.99650276753789       -0.01868799477080        0.05142069244872
C          180.65166251340489       -0.02430346268916        0.05622111114301
C          179.42793690426387       -0.03432133244671        0.05755984528038
C          184.56959115276760       -0.02227002860189        0.04282217616295
C          185.79320050103161       -0.03080647319893        0.04137799685025
C          106.75563331223000       -0.05100446295467        0.04652200166175
C          107.38262111426310       -0.28395722967154       -1.19348903233036
C          106.74234609458907       -0.51218938467247       -2.43782727125926
C          107.71620402562333       -0.71222974360183       -3.37996738370193
C          108.97428422339222       -0.60857703663951       -2.73350323325557
N          108.72717239406789       -0.34799413608884       -1.41661200989817
C          110.24083944533706       -0.74820360788829       -3.33110709356141
C          110.25017793219507       -1.03809827521435       -4.71390903229964
C          110.25340294011049       -1.29583359377088       -5.89975865074027
C          110.25851696158203       -1.59851771729349       -7.28048541831444
C          111.45735916563706       -1.76134887991078       -7.98455341534663
C          111.40614640708559       -2.06090246638884       -9.33426557700339
N          110.26590555911197       -2.20385416478745      -10.00506868642696
C          109.12194328562127       -2.05002349453510       -9.34304354890401
C          109.06352831250062       -1.74979364156831       -7.99385497968452
C          111.47725759105155       -0.62642717667728       -2.67870929155088
C          112.75059703418481       -0.76944635928178       -3.35702575567006
C          113.70355609994192       -0.57949539762822       -2.42029313082283
N          111.66791895003125       -0.35999693204034       -1.36328454680260
C          113.00605569450541       -0.32507309148115       -1.17521452063320
C          113.66959738122844       -0.08232366961197        0.04261255247824
C          113.04200051236316        0.15329399170507        1.28250612843404
C          113.68210287145676        0.38921463240428        2.52538573604370
C          112.70792586610723        0.55572232932282        3.47376959503535
C          111.44979054444707        0.42719439088586        2.83185711120382
N          111.69758474516033        0.18653567260711        1.51093323322126
C          110.18325444741015        0.52663678645653        3.43662603994260
C          110.17187100129031        0.76424176494100        4.82924656036738
C          110.16516754083500        0.96077399145464        6.02679215609761
C          110.14857185822659        1.18623481830168        7.42209997864711
C          108.94278565646179        1.29623265435617        8.12469066551249
C          108.98061542169295        1.51359488217549        9.49043529922199
N          110.11425443066990        1.62480391725459       10.17827135450080
C          111.26468833146252        1.52183829726436        9.51762486860260
C          111.33648673858831        1.30490334464814        8.15315391624745
C          108.94645292364829        0.41112367149174        2.78243910487532
C          107.67289156556585        0.53444306132124        3.46452793829086
C          106.72006909657681        0.37711771533127        2.52170612084805
C          107.41756685198175        0.15611111612561        1.27033633246010
N          108.75657996737316        0.18179865269684        1.46079277407743
H          105.67449590333271       -0.52252730135520       -2.58496399949043
H          107.58142261336140       -0.91344585394918       -4.43047568975914
H          109.43962134985341       -0.22325627609652       -0.70512338044190
H          112.40841112322100       -1.65425093199952       -7.47705607830212
H          112.32069450047231       -2.19326930282385       -9.90517586710623
H          108.21049915688954       -2.17343502534178       -9.92088404832689
H          108.10974209436820       -1.63337831258464       -7.49346306930395
H          112.86971684961397       -0.98397071927826       -4.40700733337368
H          114.77556296823768       -0.60517476974618       -2.53281159125902
H          114.75005951107345        0.42436478071281        2.66788418778181
H          112.84247620464801        0.75120133653560        4.52539112981098
H          110.98516976521999        0.04955727050877        0.80167596198883
H          107.99680443010458        1.21148760035351        7.60367233698684
H          108.06044291669697        1.60257492728122       10.06070196960495
H          112.17039660237516        1.61739746251062       10.10959729224997
H          112.29526689053192        1.22705468136679        7.65483436680158
H          107.55351040365859        0.71785616090517        4.52035840008537
H          105.64803482062443        0.40231130183007        2.63412445528167
C          122.84242707548745       -0.08610640895674        0.03235392677674
C          123.47028319165177       -0.33546959502754       -1.20492301356074
C          122.83055919229437       -0.58732707199153       -2.44464013668353
C          123.80521554796967       -0.78663953086569       -3.38643451435406
C          125.06291231201803       -0.65919033798305       -2.74394058544651
N          124.81483212458392       -0.38643956734477       -1.42946273908124
C          126.33005291031610       -0.78674187378731       -3.34308886470774
C          126.34091420894342       -1.08558297393762       -4.72395092163179
C          126.34649953028595       -1.34816378803204       -5.90873868110784
C          126.35806979089170       -1.65742373081058       -7.28796539138968
C          127.56078463614998       -1.80930896112001       -7.98793207748280
C          127.51700439387029       -2.11502217625840       -9.33650166281157
N          126.38041795741094       -2.27386093894814      -10.00994353201286
C          125.23285467043009       -2.13076793236699       -9.35180086873609
C          125.16700157849725       -1.82569451422591       -8.00400093634375
C          127.56638282568329       -0.64451671193891       -2.69460737392676
C          128.83977940647063       -0.77701962283158       -3.37487910119193
C          129.79258695286515       -0.57211954102593       -2.44112141677555
N          127.75686830222145       -0.36812856792763       -1.38116771141659
C          129.09497165633505       -0.31841974828669       -1.19603736043762
C          129.75854676777109       -0.06384278352783        0.01937807433380
C          129.13088296255566        0.17615967251800        1.25856698936677
C          129.77059917811980        0.42475896074038        2.49897487537704
C          128.79605630112732        0.59399582074181        3.44673193140139
C          127.53840437658955        0.45447638606603        2.80662490607050
N          127.78645749263839        0.20441103240076        1.48758127303367
C          126.27142348442429        0.55491599017823        3.41098458832910
C          126.25984001744538        0.80550778363856        4.80140997364872
C          126.25231625558045        1.01447238500478        5.99681234960249
C          126.23378134139639        1.25379251139656        7.38981161025484
C          125.02665021546738        1.36889516052022        8.08931189400543
C          125.06184817369100        1.60057134587728        9.45274624676281
N          126.19421776609741        1.72099622599943       10.14113859746408
C          127.34586346115391        1.61305934339401        9.48347745425331
C          127.42029101846711        1.38203334554004        8.12141918046159
C          125.03494622408209        0.42892408535302        2.75914851692134
C          123.76161489413876        0.55702721280906        3.44038665760230
C          122.80859844160189        0.38362347119079        2.50046695210144
C          123.50599513634906        0.14758218159554        1.25186135013833
N          124.84429679105510        0.18159774691339        1.44004182193666
H          121.76265003722543       -0.61246197709162       -2.58954058738032
H          123.67094011848536       -1.00213081069631       -4.43416941708775
H          125.52689574190934       -0.24430357654168       -0.72084490123490
H          128.50902463849408       -1.68900300681416       -7.47813742473062
H          128.43468311407202       -2.23898372182763       -9.90425440983175
H          124.32458051955408       -2.26708788344193       -9.93172909011005
H          124.21043375428746       -1.71835715062199       -7.50691133296155
H          128.95915285308189       -0.99565919467419       -4.42397950625173
H          130.86457757372636       -0.58676000507555       -2.55576495079923
H          130.83843206683466        0.46639156449703        2.64060600475426
H          128.93030847721914        0.79852371562238        4.49666441817456
H          127.07446690865892        0.05776348999004        0.77982078071055
H          124.08172256718430        1.27702667093882        7.56758320159238
H          124.14060782275614        1.69394687565167       10.02057635000098
H          128.25044767521860        1.71634360181588       10.07586267479052
H          128.38004497729813        1.30062139069475        7.62556341129954
H          123.64236106460483        0.75435171152381        4.49371573334985
H          121.73659503005588        0.40641778043210        2.61362939494664
C          138.93092778171123       -0.06158295920840        0.02014723858572
C          139.55983988865893       -0.31370983085173       -1.21604838325090
C          138.92081056392973       -0.56378004809370       -2.45651793084566
C          139.89591466515151       -0.76849696233305       -3.39668107305722
C          141.15319668957025       -0.64607091867234       -2.75244036517711
N          140.90441470341437       -0.37084586364092       -1.43854771002070
C          142.42073281762768       -0.77997258464322       -3.34925116880573
C          142.43287479504272       -1.08035986696965       -4.72976447240474
C          142.43946568345717       -1.34350054466212       -5.91442816436985
C          142.45333926926975       -1.65264827986379       -7.29367886200852
C          143.65751675716737       -1.80618843504590       -7.99081967541660
C          143.61656307484185       -2.11077430299928       -9.33970977593341
N          142.48134140088598       -2.26713580796758      -10.01604962081911
C          141.33243535563793       -2.12271367453353       -9.36058593030315
C          141.26375995573557       -1.81852219931121       -8.01270191950261
C          143.65638066050190       -0.64179398735719       -2.69851578753148
C          144.93058289425531       -0.78009970651070       -3.37605704244578
C          145.88229740097475       -0.57641860111040       -2.44091115394578
N          143.84526331572164       -0.36378752742066       -1.38520087257755
C          145.18320842072066       -0.31818214761694       -1.19760379274925
C          145.84533030393641       -0.06385527348321        0.01863191416733
C          145.21646001965624        0.17713533059885        1.25706034754897
C          145.85543795563129        0.42192186575890        2.49860188281991
C          144.88030665744208        0.59309024352739        3.44542457424501
C          143.62302995701290        0.45889614508496        2.80351712360046
N          143.87186137646512        0.20950885928936        1.48448657035540
C          142.35546560157820        0.56352433311534        3.40614490810198
C          142.34342380543177        0.81325054526684        4.79673135000974
C          142.33816193367872        1.02103163590517        5.99236203477437
C          142.32433892350568        1.26120498436287        7.38529098271782
C          141.12008885253118        1.38087836660423        8.08892571888668
C          141.16090923778421        1.61448712786778        9.45189508908611
N          142.29607714869815        1.73252499408644       10.13606655908849
C          143.44504475869360        1.61985970484975        9.47452467960328
C          143.51385086685403        1.38654473337789        8.11258153025837
C          141.11979318822094        0.44309913726056        2.75191879764118
C          139.84557081761147        0.57556229789596        3.43061417987601
C          138.89386098644448        0.40703658740300        2.48848476281042
C          139.59295582196239        0.16929331374578        1.24109109315937
N          140.93089992953048        0.19782937446034        1.43210218267195
H          137.85301475160702       -0.58422382112570       -2.60298461025024
H          139.76217226880647       -0.98449227691504       -4.44438348486151
H          141.61632363650506       -0.23117247184853       -0.72929131771781
H          144.60466432682864       -1.68784001714998       -7.47854516726668
H          144.53540871594765       -2.23581733991428       -9.90532724730284
H          140.42536297955803       -2.25703958226933       -9.94285632092376
H          140.30611526245460       -1.70996968914973       -7.51795772726387
H          145.05116790175109       -1.00136900647329       -4.42446427404872
H          146.95444110584205       -0.59509715865052       -2.55345737697312
H          146.92322752130573        0.45951217106952        2.64167135780487
H          145.01403501942195        0.79553961271875        4.49582759062725
H          143.15993466651901        0.06647603278004        0.77592033791808
H          140.17299835932428        1.29117233926927        7.57076598603210
H          140.24201515019715        1.71162464047488       10.02288263841435
H          144.35206087455200        1.72124370385898       10.06351195890807
H          144.47155816982900        1.30135520772997        7.61340759006346
H          139.72498273807176        0.77216465029776        4.48393041029617
H          137.82171185697482        0.43396970136836        2.59934922462685
C          155.01780474548372       -0.04858587070725        0.01894712503985
C          155.64799517310581       -0.30036160076575       -1.21664672874749
C          155.01068875128917       -0.54710987198771       -2.45867395347497
C          155.98711422517638       -0.75033558294894       -3.39776422622241
C          157.24355139969279       -0.63122122611427       -2.75114861491096
N          156.99288932820136       -0.35841112509633       -1.43711567652269
C          158.51165820806966       -0.76716186782142       -3.34611289490843
C          158.52554703847005       -1.06364370386827       -4.72745574813229
C          158.53460218952765       -1.32390323212121       -5.91274734751539
C          158.55381656044725       -1.63070707256046       -7.29239788401069
C          159.76106924298202       -1.77575916731156       -7.98604683104961
C          159.72614900077835       -2.07778315475557       -9.33566274445165
N          158.59397040230587       -2.23942060884267      -10.01587248915761
C          157.44218587102142       -2.10287487657593       -9.36378696999217
C          157.36747334445539       -1.80172983350066       -8.01551965717837
C          159.74703888753473       -0.63483960550206       -2.69347116587390
C          161.02145967374440       -0.77838083245987       -3.36956597371780
C          161.97297048459495       -0.57987860379389       -2.43308438378402
N          159.93555193484676       -0.35865197616358       -1.37982127266804
C          161.27355149633448       -0.31889607158745       -1.19062244987330
C          161.93506138465989       -0.06702310384192        0.02635695285045
C          161.30486315067486        0.17700746355742        1.26350387685106
C          161.94208413813095        0.42034544552430        2.50618595710332
C          160.96551047432683        0.59622526262297        3.45065560442159
C          159.70910419108446        0.46640263040605        2.80609559692862
N          159.95984651566761        0.21482344636753        1.48792465406451
C          158.44083866810186        0.57674605867088        3.40632820372266
C          158.42813444739770        0.82770718348469        4.79667916216788
C          158.42146564838541        1.03523063059009        5.99233293697133
C          158.41046533909142        1.27370176289055        7.38554077453406
C          157.20802393927053        1.38689502401563        8.09327896823813
C          157.25232076952602        1.61669141789570        9.45680401613409
N          158.38920120119437        1.73719433102661       10.13768734002365
C          159.53648166227157        1.63144844258268        9.47205306309235
C          159.60181979922783        1.40224971114517        8.10925876563057
C          157.20555776410055        0.45922466698795        2.75097141350053
C          155.93110965198818        0.59697260449301        3.42823736058661
C          154.97970930252581        0.42715271207349        2.48603334845337
C          155.67922105285277        0.18420902163726        1.23989041421724
N          157.01706609733097        0.21080017576074        1.43167239601260
H          153.94310657709477       -0.56596194897562       -2.60690843114802
H          155.85494549915018       -0.96341668726455       -4.44626252976182
H          157.70337870849164       -0.22118352984960       -0.72596373596727
H          160.70585846129151       -1.65279730731091       -7.47050775216957
H          160.64749102246483       -2.19632397078783       -9.89860455000082
H          156.53775548424676       -2.24147076374717       -9.94916059446590
H          156.40767421340149       -1.69958060666988       -7.52360713008470
H          161.14239805494765       -0.99984074060542       -4.41788918807756
H          163.04516047749439       -0.60368587653948       -2.54423330873968
H          163.00969308768143        0.45386492562012        2.65158233562661
H          161.09769456521690        0.79895365980416        4.50119771773872
H          159.24934045636471        0.07360610576027        0.77756437763762
H          156.25962928140279        1.29479895618095        7.57793364213890
H          156.33488170293953        1.70822767795703       10.03105670568502
H          160.44499477775003        1.73488810036007       10.05836580939028
H          160.55822606413551        1.32248216646947        7.60668912573329
H          155.81015112939383        0.79766984782047        4.48073694052699
H          153.90754930118160        0.45704516072265        2.59603514370604
C          171.10780777517206       -0.06526010660443        0.04516617573914
C          171.73992420933308       -0.30213300414237       -1.19224414504783
C          171.10454234096730       -0.54109016298072       -2.43693552962974
C          172.08237895746544       -0.72884494426409       -3.37761502436319
C          173.33801352229139       -0.60692039842010       -2.72966869541550
N          173.08520483130405       -0.34930830548959       -1.41290768220740
C          174.60697547671694       -0.72381192202739       -3.32618819671365
C          174.62443126296549       -1.00662200272511       -4.71028211362539
C          174.63749609720682       -1.25567630088766       -5.89794772703733
C          174.66245874205234       -1.54983675058517       -7.28026296316636
C          175.87277061975166       -1.68495265308375       -7.97063132430950
C          175.84393518069965       -1.97492825854394       -9.32302087879883
N          174.71486198195873       -2.13385320491886      -10.00900599041409
C          173.56020412283527       -2.00684107095906       -9.36004152246610
C          173.47942197179853       -1.71818390913215       -8.00941033766791
C          175.84110729885143       -0.58460611123213       -2.67175374136981
C          177.11705851712497       -0.70143523806694       -3.35036962475507
C          178.06632321140748       -0.50695727910585       -2.41090580297075
N          176.02615766107363       -0.32725205020378       -1.35441642071698
C          177.36424915682022       -0.27609273590569       -1.16386785908101
C          178.02233558993561       -0.04660589027846        0.05838712745322
C          177.39087985808129        0.16820245182493        1.29946829517883
C          178.02640916143750        0.39273885961574        2.54681722149352
C          177.04868327969075        0.55456841400925        3.49236390919691
C          175.79296249083055        0.43382150559115        2.84430242646805
N          176.04532850219047        0.20089464881958        1.52321485699553
C          174.52380937732650        0.53701257927962        3.44389812994528
C          174.50883578952894        0.77737244484459        4.83612888685368
C          174.50101568935523        0.97618341111399        6.03326549599276
C          174.48818226629891        1.20386456509585        7.42828338839333
C          173.28528032049667        1.32007434665534        8.13472179180959
C          173.32873473315121        1.53787824722671        9.50026778850243
N          174.46513090134485        1.64412968749253       10.18429375894081
C          175.61288864047481        1.53602472485256        9.51980480527221
C          175.67905698583118        1.31818188470032        8.15523740685749
C          173.28989294254512        0.42319011969073        2.78531774377484
C          172.01392810682913        0.54919477745589        3.46208960027533
C          171.06459401237396        0.38483629332799        2.51687731964258
C          171.76685588228870        0.15756309367348        1.26923255303553
N          173.10427872302938        0.18743832991847        1.46331148657814
H          170.03712999898553       -0.56548595503122       -2.58561427727448
H          171.95188868275730       -0.93259753396427       -4.42818056310283
H          173.79488721946930       -0.21400511768007       -0.70058538161210
H          176.81522111883888       -1.56390147838821       -7.45038288609287
H          176.76779904411117       -2.08570976542965       -9.88341608063236
H          172.65844838060198       -2.14277731374484       -9.95015871489848
H          172.51741944302546       -1.62353116532048       -7.52030427433173
H          177.24037983254320       -0.90348708141453       -4.40233287664080
H          179.13867692545512       -0.51570157545122       -2.52262002828362
H          179.09385125858611        0.42456226409983        2.69392938378844
H          177.17935508573353        0.74208204442343        4.54592054674214
H          175.33544639078957        0.07072237968675        0.81013100893092
H          172.33714132162009        1.23949661505587        7.61699215402710
H          172.41091450646050        1.63110825237278       10.07365939840432
H          176.52103108976269        1.62774776197941       10.10863129996686
H          176.63575137544055        1.23603238864107        7.65359334244638
H          171.89068232319300        0.73837572256785        4.51645895719035
H          169.99215923727527        0.40864381747226        2.62568531624226
