232
 energy: -378.238796397672 gnorm: 0.000291359007 xtb: 6.5.1 (b24c23e)
C           43.37478460382189        0.01273154193681        0.07238989972448
C           43.96699083542143       -1.16502724756653        0.50957012583842
C           43.29863332979859       -2.34755742638265        0.93453733417271
C           44.24823038100337       -3.26294448017413        1.29175319760958
C           45.52769419414979       -2.66592199443891        1.10497154436271
N           45.30696521543755       -1.40653525169817        0.62351158479180
C           46.78209208050980       -3.23830693303267        1.34223302899042
C           48.00750426640233       -2.61214112511212        1.10233051871909
C           49.29461569690078       -3.20479969045454        1.41850932581877
C           50.23017843631558       -2.30488169835538        1.05143170800289
N           48.18274130878198       -1.37075331636149        0.57163134967780
C           49.51425277476618       -1.16146380162093        0.51932672108584
C           50.16802785970442       -0.00984389443407        0.03908705959474
C           49.55027384213558        1.16049174947671       -0.43915527974660
C           50.20974591448005        2.30147761966471       -0.96817338225599
C           49.25569770963497        3.21229056738528       -1.32905729049242
C           47.98218521694972        2.65722601317417       -1.02428911126247
C           46.72856402662578        3.23995375004896       -1.23921380297168
C           46.71722320327930        4.61139022582565       -1.80428653530399
C           46.10927144922982        4.86251524512903       -3.03534059467169
C           46.10235502863631        6.14364864646256       -3.56585260610730
C           46.69710627291410        7.18961190003295       -2.87326509186267
C           47.30171928449125        6.94866089958226       -1.64703103806925
C           47.31513073813297        5.66781127607251       -1.11552705611081
C           45.50289266906088        2.62513369329849       -0.96425412423897
C           44.20897545342302        3.26694184006633       -1.13758759149556
C           43.28055823662419        2.36071811082691       -0.77074031868130
C           44.00620095447297        1.16991221471745       -0.36485886458792
N           45.34157759443885        1.36864522390236       -0.48528372526878
N           48.21203275713356        1.41425902162696       -0.49612241008637
C           46.79216781310197       -4.61484352554038        1.89676992248100
C           46.21595405653962       -4.88116279278779        3.13957348712596
C           46.22874163006582       -6.16770703284091        3.65726251387204
C           46.81061838577144       -7.20347314031548        2.93908627821658
C           47.38310212323120       -6.94708938830939        1.70055451372135
C           47.37705977817699       -5.66100755488527        1.18198985906491
H           42.28945388068664        0.02131970800869        0.07732737870782
H           42.22749144547457       -2.47075653100413        0.95420966456846
H           44.08349873239356       -4.26756573572519        1.64617402223763
H           46.04127702127013       -0.74934755561099        0.38247831778337
H           49.44035418651180       -4.17074048512153        1.87425361608428
H           51.30238086001164       -2.37910708595658        1.13641581568311
H           51.27851707724454        2.40043326239024       -1.06828170335672
H           49.41667841292952        4.17863964107023       -1.77836547601503
H           45.65606513892343        4.04437334658423       -3.58396047078122
H           45.63153192871772        6.32589916636146       -4.52555894445110
H           46.68924141352038        8.19106061447262       -3.28840016234260
H           47.76445981202321        7.76275337028133       -1.10013553950173
H           47.77541341616250        5.48484305975374       -0.15081245956978
H           44.05758649000717        4.27799778477093       -1.48008206204165
H           42.20650960079268        2.46128232742624       -0.75728657438462
H           47.48104586769281        0.77380832798680       -0.20439953392430
H           45.77345114417756       -4.07099356653837        3.70865627237757
H           45.78361885944310       -6.36177023863357        4.62689057094932
H           46.81826048996642       -8.20899344739786        3.34427572921605
H           47.83631742468521       -7.75325931771137        1.13435417834243
H           47.81410721436356       -5.46448084271632        0.20933482377213
C           82.81626889520373        0.02969863258610        0.08142717176549
C           82.23163144838443        1.15129702192388       -0.49213993027356
C           82.90700672981332        2.26204198535762       -1.07174984716043
C           81.96288952415169        3.14723108858071       -1.51007090577294
C           80.67967113732770        2.61161487618984       -1.20130793382375
N           80.89312203719206        1.40379564795796       -0.59928420959535
C           79.42859422149628        3.18064811161359       -1.46198516095668
C           78.19957996239299        2.58791908441895       -1.16063997672620
C           76.91642243341884        3.23174160903724       -1.37789368646478
C           75.97503718008677        2.35302254300272       -0.97599275569455
N           78.01666181143575        1.35315860654803       -0.61872789238507
C           76.68322198676610        1.17775694027914       -0.50695591424595
C           76.02328120706316        0.02288458190390       -0.04579294082429
C           76.63486661476935       -1.14811739754997        0.43708477517867
C           75.97001431286232       -2.31989875399641        0.88637776329603
C           76.91872502831056       -3.20620119352100        1.31557202396518
C           78.19382911897817       -2.59754451700712        1.15138631332138
C           79.44222817548844       -3.14350092338740        1.46923458889960
C           79.44192735617625       -4.48687975768929        2.09821917544771
C           80.07637788950544       -5.56185166613020        1.47396195830007
C           80.07146248729678       -6.81724471230975        2.06299637514509
C           79.43808288694768       -7.01426637554173        3.28259583694745
C           78.80704481932044       -5.94954038437412        3.91142361672419
C           78.80576600956464       -4.69371608213212        3.32329933387584
C           80.67109222894481       -2.51579167092315        1.24204055024026
C           81.95864996731693       -3.07342821724017        1.62620152398752
C           82.89294933850042       -2.18455129100942        1.23279745563548
C           82.17688421245511       -1.07936268958107        0.62026709878964
N           80.84140358137402       -1.30827778566136        0.65273328885733
N           77.97113181537318       -1.36162537787928        0.60459039622041
C           79.42460899966846        4.51520603066472       -2.11077358888170
C           80.01516293298518        5.61275246408660       -1.48310704149836
C           80.00967678321572        6.85726595999107       -2.09523593845914
C           79.42038991378286        7.01996136414890       -3.34159428823915
C           78.83273832919672        5.93239838782857       -3.97352222250219
C           78.83195287112012        4.68765096866644       -3.36257790777100
H           83.90135342528133        0.02753304469569        0.10634856441153
H           83.97886848431480        2.35586183297912       -1.14408996819365
H           82.13396374291158        4.08653913653522       -2.01049576510126
H           80.15527801188755        0.78426617628305       -0.28161984387944
H           76.77705853681755        4.22561354944233       -1.77132567879564
H           74.90296659459295        2.46694098948169       -0.98539130767064
H           74.90104673014451       -2.45946825326096        0.87837277034229
H           76.75329987200955       -4.19733481226728        1.70531328216188
H           80.55967539319380       -5.41316412180770        0.51477798928035
H           80.56331567199729       -7.64629364657466        1.56633437743225
H           79.43640384351357       -7.99599581522728        3.74247806546552
H           78.31396000958915       -6.09691407232503        4.86594103156761
H           78.32472680448156       -3.86033286422031        3.82338588776175
H           82.10222969946572       -4.01170225934875        2.13753256994591
H           83.96501530719502       -2.23890062498075        1.34056861439082
H           78.70431759292647       -0.70221495933459        0.36534932330643
H           80.46321637457658        5.49153463202954       -0.50302469166280
H           80.46661151604386        7.70435279600597       -1.59562226830428
H           79.41871694358156        7.99299955572233       -3.81959940717506
H           78.37333753772107        6.05348755423989       -4.94829564804137
H           78.38360684349013        3.83645436146775       -3.86275499170249
C           51.57786672668707       -0.01502103275257        0.03125415601621
C           52.79462703373115       -0.02014751600498        0.02048400737006
C           62.48440419403961       -0.01699525861663       -0.01422863502925
C           63.70226204350089       -0.01745305245410       -0.02284106408620
C           73.39558099526847        0.02319048469747       -0.07038818482467
C           74.61199968510729        0.02408756874772       -0.06312750537090
C           54.20362141028797       -0.02000564841547        0.01259778517599
C           54.82940943156763        1.23054329023101        0.17146237394555
C           54.18377144978984        2.47484769250320        0.38989277119811
C           55.14916235457400        3.43984838010427        0.48509764675745
C           56.41370929781556        2.81235424279495        0.32002071061644
N           56.17013583849991        1.47637366205229        0.14510191340217
C           57.67250735462188        3.42545427507913        0.33863995879995
C           58.89782943398327        2.76717300149988        0.22330256133335
C           60.17699976479915        3.45053009983677        0.16200691715721
C           61.11876890798204        2.48950677553782        0.06292984155839
N           59.08335035975600        1.42046057628080        0.14005693095584
C           60.41508493576163        1.22278482334948        0.06026621310091
C           61.07655803315488       -0.02006137004299       -0.01176103335059
C           60.44875441059480       -1.27843164631758       -0.08753139850179
C           61.09186779252985       -2.54249964837418       -0.11699073536732
C           60.12556987092411       -3.50567514662817       -0.21907845798289
C           58.86204479202841       -2.85613313424636       -0.25766330084229
C           57.60393000310971       -3.46220893028667       -0.36016374684224
C           57.59513675850706       -4.93775535229967       -0.52195358178789
C           58.19815365562489       -5.52930189009111       -1.63294553343386
C           58.18557752621305       -6.90739686581084       -1.78708076901342
C           57.57745404800009       -7.71101619519224       -0.83229271813814
C           56.97880407320957       -7.13034757906934        0.27756803837376
C           56.98429538544477       -5.75228458879400        0.43242220796694
C           56.37702536154524       -2.79778804514546       -0.32530357597096
C           55.09484725999828       -3.45773402401586       -0.49544868594282
C           54.15322863574996       -2.49806043005029       -0.38422490581685
C           54.86096728576152       -1.25382119945601       -0.15601176108815
N           56.19374051486356       -1.46179586755946       -0.13873212769741
N           59.10755566275346       -1.51228639005438       -0.16169317686028
C           57.68524823389570        4.90139886071308        0.49467141227637
C           57.06803309958083        5.72059741404005       -0.45175288430558
C           57.08214872822672        7.09922493688157       -0.30186722480644
C           57.70672059328684        7.67595900712727        0.79562856828517
C           58.32112882923349        6.86778853401474        1.74261310856677
C           58.31358344315189        5.48918050032346        1.59360363798754
H           53.11719086276590        2.60655887136771        0.47388841397200
H           55.00007562014677        4.49186752948821        0.66552751429288
H           56.88943302069971        0.77127466346376        0.02410360590248
H           60.31367010635653        4.51970051888275        0.17440064030825
H           62.18747572403547        2.60407624296913       -0.01868656762353
H           62.15747038033138       -2.69074107806432       -0.05625521157883
H           60.27268294762922       -4.57281390889999       -0.25216305920212
H           58.66206798294984       -4.90242360237782       -2.38647151384221
H           58.65162395029790       -7.35549672471922       -2.65767430581273
H           57.56994861266762       -8.78834243559096       -0.95319355386075
H           56.50534548053754       -7.75398561696042        1.02776052699026
H           56.52668420227748       -5.30114456518094        1.30575249081329
H           54.95611683848826       -4.50904731184213       -0.68889559354211
H           53.08223640787316       -2.59583907234397       -0.46030568839398
H           58.38911021069789       -0.79632103670522       -0.14198889181050
H           56.59169818572406        5.27314772937800       -1.31712520994427
H           56.60396605965983        7.72603464334728       -1.04642647365560
H           57.71491323758095        8.75371740193895        0.91253610261791
H           58.80811364277834        7.31316136805061        2.60306488653234
H           58.78320607656334        4.85873479440292        2.34040158088299
C           65.10992436721703       -0.00849479904855       -0.03447642395320
C           65.73701345018881        1.14848877285375        0.46702358815170
C           65.09646107244653        2.27683665602185        1.04047927545455
C           66.06143741171468        3.19097830774403        1.36443459371159
C           67.32154573685679        2.64798494528066        0.99353280339775
N           67.07586264287403        1.40624795620469        0.47085105934962
C           68.57673130030106        3.25194496998255        1.13453136305120
C           69.80242199457265        2.66015859724449        0.82357491853876
C           71.07930603789961        3.34413570345253        0.92585732362727
C           72.02413580482418        2.44251828493980        0.58765394191560
N           69.99052590569768        1.38032420360744        0.40136542733829
C           71.32343015675127        1.21447881188292        0.26880982015171
C           71.98516133438918        0.02113688654452       -0.07603084217761
C           71.36210312034289       -1.18955015563950       -0.42979351445652
C           72.00884631661702       -2.40449851355375       -0.77465039474613
C           71.04459634463915       -3.31193452075793       -1.11968587163438
C           69.77993069023810       -2.67336541614055       -1.00363440382312
C           68.52403498051798       -3.22422504528644       -1.28715306552639
C           68.51871413847195       -4.60440641243899       -1.83321342925996
C           69.15241625830707       -4.88688044084281       -3.04426679985804
C           69.14492032072239       -6.17570927917730       -3.55595523410675
C           68.51107681311524       -7.19811936225046       -2.86298974927757
C           67.88082178308336       -6.92572444086424       -1.65635446962581
C           67.88112679082450       -5.63700030609595       -1.14425798372878
C           67.29706282625152       -2.58419520458502       -1.10648341320445
C           66.02092525288421       -3.16319581584264       -1.48537488145018
C           65.07551758485452       -2.26729120112533       -1.13302570342377
C           65.77441905172383       -1.14110169984657       -0.54735246177117
N           67.10656089647762       -1.35044574690279       -0.56197070935871
N           70.02156765733103       -1.39897249792886       -0.56613681972255
C           68.58628512608423        4.63594880547349        1.67039579331309
C           67.93707813101196        5.66571769464254        0.98794834723393
C           67.94961401571670        6.95770718786608        1.49182853782199
C           68.60398531037001        7.23596236959167        2.68413531553909
C           69.24939021890768        6.21634579182276        3.37061148180792
C           69.24369458616860        4.92433042962764        2.86732937300889
H           64.03387064402321        2.36718845929428        1.19487728311969
H           65.91569425600089        4.15198182775029        1.83000243205895
H           67.79228395804638        0.76867713941648        0.14024187878064
H           71.21228311698641        4.37625594879042        1.20687511715282
H           73.09361005323777        2.57298922496012        0.54794068830370
H           73.07592624382416       -2.55723613441679       -0.76054175240927
H           71.19402420652030       -4.33569717712550       -1.42163066844337
H           69.63650401532342       -4.08698388927559       -3.59366212750417
H           69.63528152513284       -6.38210376060725       -4.50087378652606
H           68.50806055041797       -8.20570534380598       -3.26304876772556
H           67.38679440291239       -7.72151665260816       -1.10995936376555
H           67.39857669225037       -5.42811470122583       -0.19599404547506
H           65.88869276701344       -4.11724968355237       -1.96940495038073
H           64.00743802729419       -2.33277881326555       -1.26349993875174
H           69.30284980512673       -0.70791255206279       -0.37883130811080
H           67.43682738877214        5.45333109673100        0.04953599594643
H           67.44690728105351        7.75116724528298        0.94995701997019
H           68.61110431684553        8.24606497165150        3.07773816250603
H           69.75940262573810        6.42775205147764        4.30391704179507
H           69.73755420440536        4.12657314762848        3.41080722261823
