236
 energy: -428.326445732646 gnorm: 0.000886860420 xtb: 6.5.1 (b24c23e)
Ni          50.59813845378329       -0.03331055895223       -0.15960242462657
C           47.23787046804510       -0.05648699048758       -0.59505400362206
C           47.86972698039467       -1.26270069544099       -0.37127665054256
C           47.17792185561011       -2.50856561403661       -0.24466219639854
C           48.12166888943690       -3.45832074949699       -0.04362376162029
C           49.39291409875634       -2.79671219958841       -0.08586391044464
N           49.22371646967429       -1.44286984563781       -0.24326319571481
C           50.61508913973996       -3.45630168504700       -0.06149485948906
C           50.63572214192438       -4.93527992397394        0.03379014013214
C           50.03286789736159       -5.72502565720639       -0.94552916588932
C           50.05958215226365       -7.10822552188886       -0.85508692811043
C           50.68991234880018       -7.71836531226444        0.22683839592873
O           50.73674281136089       -9.06942883086045        0.35587369425314
C           51.29662713204170       -6.94094570287736        1.21180989084908
C           51.27078917644441       -5.56162430666713        1.10931976484502
C           51.82752168221519       -2.78410519138062       -0.15963503964946
C           53.09180573819857       -3.44134939698182       -0.29433050570318
C           54.03589241591924       -2.47036651317397       -0.33614910943822
N           51.99579165185165       -1.41889463527092       -0.14489305177057
C           53.34880806697991       -1.22403153425025       -0.21602113613461
C           54.00355927224091        0.00013943047126       -0.06337044332170
C           53.31874552147166        1.20068931168649        0.13836123225392
C           53.97291591819681        2.44527773525673        0.38837313509870
C           53.00276679999997        3.38761390354209        0.46485350895223
C           51.75672186808052        2.71757798174385        0.24586558207876
N           51.96253700227046        1.36782243862926        0.07021476085653
C           50.54670722906335        3.38044299052217        0.08841645065769
C           50.52560798955228        4.85752263126155        0.23280654064234
C           50.78175201901862        5.44982854820385        1.47107058863197
C           50.76345644513171        6.82607743912183        1.61436496478730
C           50.49497353289703        7.63232601156479        0.50981631268963
O           50.48921981441489        8.97935413459586        0.68434790375276
C           50.24353450258021        7.05485811898184       -0.73243804759177
C           50.25685090330237        5.67467024359821       -0.86476420291672
C           49.36769481934558        2.72147636941036       -0.23511862974239
C           48.11674005402428        3.38267792549152       -0.46645555286684
C           47.19768968612780        2.41609298915324       -0.69703876729713
C           47.88050295841379        1.16394842295388       -0.57781464404681
N           49.21426857117974        1.36004624464721       -0.31924417021166
H           46.16465937734981       -0.06418268733861       -0.74613751927558
H           46.10621740044323       -2.61998704776509       -0.29058567599484
H           47.98125836922432       -4.51488022132929        0.11702620497301
H           49.55590536253372       -5.25249746653278       -1.79702040511570
H           49.59498219541420       -7.71753323636408       -1.62296980334382
H           50.28323470579053       -9.50872216448369       -0.37608915009203
H           51.78192069081712       -7.42888653606393        2.04805372915827
H           51.73450590487752       -4.95600889971206        1.87996762958571
H           53.22844056271916       -4.50831258554298       -0.36168183362450
H           55.10498916501472       -2.57600941735757       -0.42544819258755
H           55.03940179046210        2.56921702812490        0.48446259819954
H           53.11290566842684        4.44718289019612        0.62834879420537
H           50.98307701212543        4.82140809046889        2.33136192412327
H           50.95482095207909        7.28909499311498        2.57449852384429
H           50.28893412041231        9.43994987032028       -0.14153136888382
H           50.04069801976994        7.68655633284714       -1.59061057717678
H           50.07360972308832        5.22631680366237       -1.83489444082458
H           47.97075490034095        4.45042319089675       -0.44421127795254
H           46.14463663635598        2.52035437139919       -0.90508353656879
Ni          83.16042839402633       -0.00166406953432       -0.16020111702828
C           86.52381660094260       -0.05934323884871       -0.60444110783080
C           85.90138036233638        1.17006659987981       -0.54255073818079
C           86.60652991490706        2.41388964752200       -0.59503276258747
C           85.67797979501786        3.39147353889003       -0.47567828360030
C           84.40192236193253        2.74390655244500       -0.38623306205517
N           84.55316599010344        1.37917766844009       -0.39735950805061
C           83.19016704482239        3.42111249170406       -0.35278385686184
C           83.19409167383367        4.90335915868777       -0.40053525079184
C           83.71850381813461        5.57912889749338       -1.50243854254652
C           83.71592760922347        6.96469564874296       -1.54997232617960
C           83.19002707051207        7.69175491306826       -0.48467042913501
O           83.17146005825690        9.04964013207578       -0.48834803884081
C           82.66272991573872        7.02851141393727        0.62193811081721
C           82.66288009995830        5.64541268205596        0.65700886008757
C           81.96632163241595        2.76483809509069       -0.32020610023261
C           80.70766918101124        3.43618083440357       -0.43609936878098
C           79.74897041374182        2.48037602066487       -0.39199050642057
N           81.77870257712570        1.40548432798054       -0.21599169033086
C           80.42120428115192        1.23045325267527       -0.23411516209622
C           79.74915681895823        0.01810086182753       -0.06517047682892
C           80.41623095833749       -1.18935664846429        0.15351954356198
C           79.74067239255328       -2.41391927500400        0.44237868273708
C           80.69755645682872       -3.35843285212993        0.60589876202031
C           81.95751076980861       -2.70957287836783        0.40487306082126
N           81.77240069951819       -1.37175661158027        0.13874951528628
C           83.16960570654324       -3.38629019174250        0.37778544572313
C           83.17264776109366       -4.84368354143369        0.65855649693162
C           82.83247633071289       -5.31831082724734        1.92703981062091
C           82.83829519881380       -6.67481897570150        2.20007682217648
C           83.17888061559503       -7.58024466989109        1.19684415108414
O           83.17216880486539       -8.90459662897318        1.49787430394819
C           83.51294144311385       -7.12105318184046       -0.07489695352143
C           83.51134316884138       -5.75947463783212       -0.33708020115914
C           84.36946935078275       -2.76289849077360        0.06198961241677
C           85.62378801508740       -3.44924932152109       -0.04237752615312
C           86.55453728349960       -2.52014460812647       -0.36200178419941
C           85.87481188475280       -1.26226177163075       -0.42027363054708
N           84.53457782032879       -1.42002872906697       -0.17077997093570
H           87.59642650130505       -0.07907060362382       -0.75862909109598
H           87.67658155961108        2.50613836102516       -0.69271664244232
H           85.83118883183425        4.45807731063074       -0.44951114849527
H           84.11488795928689        5.01430448887408       -2.33889561052525
H           84.11862269006349        7.48508991633496       -2.41237384123938
H           83.56010956336615        9.40451369053262       -1.29913769233600
H           82.25822031331222        7.60705229517652        1.44321156989004
H           82.26033635728815        5.12866157195765        1.52104099288717
H           80.58453500123419        4.50012495094742       -0.55581061047353
H           78.67965685358904        2.59803589144131       -0.45774074674862
H           78.67068155898768       -2.52200643327429        0.51482546735018
H           80.57135026740697       -4.40647883351407        0.82301931129637
H           82.57551478511968       -4.61260962189646        2.70901871959126
H           82.58231157570617       -7.04629579207628        3.18459653599353
H           83.42466332413024       -9.44035047092337        0.73398595969260
H           83.77134082359417       -7.82967540930414       -0.85445803490955
H           83.75951218899954       -5.40382621671844       -1.33087822804277
H           85.76310064203079       -4.50631561953099        0.11564099231888
H           87.61264072362482       -2.65086766237846       -0.52429834383980
C           55.41300773729571        0.01675374260503       -0.07383025393855
C           56.62876077957011        0.02638207483087       -0.08511180089377
C           66.26772879904762        0.00553072065606       -0.09815331087952
C           67.48389313515875       -0.00196914804545       -0.08795439408565
C           77.12287967852605        0.01622592249237       -0.07105126679473
C           78.33892321678937        0.01880328143953       -0.07025484574964
Ni          61.44872014289596        0.02926722178271       -0.11592911803822
C           58.03773575736031        0.02966172393000       -0.09539276796775
C           58.71460767059855        1.00423884861816        0.64176961334622
C           58.05799755680241        1.97215223805701        1.46039966403006
C           59.01635161472293        2.82151424520302        1.90484904216317
C           60.25598195338702        2.37316196518196        1.34839292925094
N           60.06474394676030        1.22558823675387        0.61321642334866
C           61.45921720118871        3.05633773019970        1.47585265493920
C           61.46379211753587        4.36755972655408        2.16485642618607
C           62.24889242138755        4.57013226045002        3.30280547353339
C           62.25269776857026        5.79129898486151        3.95285583188885
C           61.47102838535660        6.83687424621233        3.46462673468843
O           61.50192770869950        8.02346636325361        4.12373799143079
C           60.68594649092797        6.65090504893224        2.32898267571541
C           60.68239644627224        5.42137404900295        1.68914963504360
C           62.65837145033129        2.55470463240011        0.98528498878043
C           63.90408314474422        3.25629735467046        1.04229401159809
C           64.85724936641458        2.39752363137750        0.60460249476407
N           62.84090215647815        1.29493876555111        0.46113403993187
C           64.19093118295797        1.17962580158534        0.27166968254387
C           64.85982404054653        0.01264579907517       -0.10764816507053
C           64.18301359016763       -1.14604647823011       -0.49755152147900
C           64.83956648921334       -2.36712389754013       -0.83811394000513
C           63.88120959410180       -3.21139244967318       -1.29236068616796
C           62.64163567614776       -2.49901502291427       -1.23404778705518
N           62.83319030509748       -1.24630068363934       -0.69720316854872
C           61.43834065742557       -2.98852005274967       -1.72691364402671
C           61.43445998853537       -4.29485750486626       -2.42533722883043
C           60.65462579554575       -5.35035428423069       -1.95109246399728
C           60.65305917070457       -6.57627382095504       -2.59798725621779
C           61.43119119896561       -6.75665364853912       -3.73919181261138
O           61.45704643044411       -7.93971354284110       -4.40506254963687
C           62.21115496213343       -5.70916519955786       -4.22621809756399
C           62.21283398252402       -4.49190516434839       -3.56893997771471
C           60.23839885415477       -2.30258616145331       -1.58494678272593
C           58.99195813758620       -2.74640367791417       -2.12971766136446
C           58.03850549038464       -1.90331026875894       -1.66315445459786
C           58.70550680716427       -0.94165656651679       -0.84542444709133
N           60.05595278465188       -1.16141914735023       -0.83719705150342
H           56.99955398780222        1.98672117205210        1.66418349763966
H           58.90340850296039        3.67264618761013        2.55632203086878
H           62.84677663844307        3.75303427069608        3.69076881814627
H           62.85410081890366        5.94868194333862        4.83964980693662
H           60.91852976906418        8.67257389098374        3.70808410950812
H           60.08253119576987        7.46885193350089        1.95017319204381
H           60.08080740211821        5.28164882189928        0.79788810984047
H           64.02414878215214        4.27596693746171        1.37010894228360
H           65.91802054222079        2.56303563605789        0.50741748463802
H           65.89797241984412       -2.54429701687733       -0.73583758047742
H           63.99347078693179       -4.22831929620166       -1.63131243833761
H           60.05854694723376       -5.21560672109806       -1.05537646228296
H           60.05125048214170       -7.39579282149594       -2.21999023926528
H           60.87750759485338       -8.59139487701232       -3.98803882987467
H           62.80731433568577       -5.86234657140402       -5.11728308511839
H           62.81010548484073       -3.67333045366329       -3.95475891902261
H           58.87120758552314       -3.59101112720420       -2.78827589829204
H           56.97716772719318       -1.91782938059744       -1.85154745366928
Ni          72.30193154146596       -0.01056375814316       -0.04947934624879
C           68.89172006243673       -0.00634449740106       -0.07485323845878
C           69.55989915731328        0.91477243646137        0.73655049773271
C           68.89423208243205        1.82234409536380        1.61493450580267
C           69.84882524655389        2.63169498004833        2.13580050944876
C           71.09461593033663        2.22316186643988        1.56245800797679
N           70.91031019697300        1.13272249075976        0.74257974866693
C           72.29483257745663        2.89819903834172        1.74424026151267
C           72.29657165158731        4.15043419316480        2.53604120214104
C           73.07449211487247        4.25710999561061        3.69181255168536
C           73.07695660029407        5.42125134544722        4.43907252624771
C           72.30225046678170        6.50595922417446        4.03146846529598
O           72.33189524006167        7.63462828761369        4.78524539534152
C           71.52552842988813        6.41591472385719        2.87853379818627
C           71.52237558701410        5.24209502837400        2.14128205365177
C           73.49512521811671        2.44614373222847        1.20931799240203
C           74.73359895615063        3.15537267895254        1.30900557766731
C           75.69060828994205        2.34548032201327        0.79389947786634
N           73.68551363478092        1.23332877543978        0.58783468477493
C           75.03492448595289        1.14901973389018        0.37333722725158
C           75.71348012914903        0.00875968374949       -0.06496042973899
C           75.04522439836045       -1.14375892291108       -0.48703980847546
C           75.71083419827042       -2.34052099648818       -0.89105500705544
C           74.75717837921908       -3.17396276925349       -1.37391976258619
C           73.51173535035598       -2.47611876275371       -1.27788584139182
N           73.69498562518703       -1.24831086443769       -0.68389914211047
C           72.31334309987706       -2.94567571221546       -1.80167464888907
C           72.31779172809749       -4.21510280382387       -2.56520205717772
C           71.53331569589267       -5.29339816702006       -2.15413680973424
C           71.53517107939989       -6.48276504523083       -2.86604982065012
C           72.32147916234882       -6.60255760561949       -4.00965868186811
O           72.34961553939129       -7.74708517017430       -4.73945023468560
C           73.10705780232466       -5.53190181701256       -4.43317583051327
C           73.10495624217666       -4.35167741700880       -3.71160242156350
C           71.11153644500811       -2.26667893374986       -1.64371844773468
C           69.87340069589365       -2.67950594339839       -2.23040642008119
C           68.91485012444670       -1.85399412532541       -1.74324935691337
C           69.56986297381462       -0.93581124878067       -0.86801038597156
N           70.91919171790265       -1.16108773497621       -0.84674135416684
H           67.83296776711499        1.82643327345275        1.80418397100106
H           69.72976220583497        3.43224312082037        2.84754239755402
H           73.66791128347748        3.40915693813754        4.01517961066581
H           73.67229031821142        5.50414554063551        5.33998141779979
H           71.75555800938830        8.31897869945416        4.41879320802248
H           70.92823623750577        7.26449156583966        2.56243594698261
H           70.92710621091453        5.17742417733813        1.23720802660070
H           74.84686480303154        4.14573699783289        1.71878049222009
H           76.74947392549576        2.52779703596346        0.70895232810587
H           76.77288363380384       -2.50799365162515       -0.81450686278411
H           74.87766233257668       -4.17274932578068       -1.76055481672358
H           70.93016813275956       -5.20558991976218       -1.25730562869542
H           70.92915969519312       -7.32027494619718       -2.53744156679799
H           71.76728938941193       -8.42024454829133       -4.36239451740745
H           73.70992897404125       -5.63786444003546       -5.32658285331956
H           73.70561374932166       -3.51436386976332       -4.04889239504457
H           69.76194506336516       -3.49241617161451       -2.92924205301875
H           67.85718179077986       -1.85510194995468       -1.95166452219783
