228
 energy: -340.596982102331 gnorm: 0.000432123209 xtb: 6.5.1 (b24c23e)
C           32.44280229026016       -0.15202304520725        0.01886631236951
C           33.05462111691015       -1.39889130664641        0.00357924673077
C           32.41548329369538       -2.67110887601905       -0.01491783034133
C           33.38818794598441       -3.63107464723985       -0.01849032238873
C           34.65284133474958       -2.97591632701148       -0.00087888431966
N           34.40070749138172       -1.63302557362970        0.00986550440935
C           35.91474753612778       -3.57378117813760        0.01104386407888
C           35.94344340742609       -5.06626401133162       -0.00519301981926
C           35.98288039075830       -5.74781256971143       -1.22504838080612
C           35.99735862010042       -4.97633795303879       -2.51780332357689
C           36.01316415240709       -7.13746899660888       -1.23127298547228
C           36.00610138760651       -7.85794051309442       -0.04150029792818
C           36.02214796524065       -9.36266649186556       -0.06099902545762
C           35.96519789422074       -7.16952592890620        1.16663216084549
C           35.93427358428995       -5.78018529577232        1.19644661730356
C           35.89650798484469       -5.04305163778158        2.50865917314761
C           37.13419300336170       -2.89748919306512        0.02913407008762
C           38.42070747570538       -3.56976154387181        0.04677289065483
C           39.35825739027667       -2.59912732810958        0.04334893786427
N           37.31079570192480       -1.54778301157419        0.01987869192902
C           38.64307983601755       -1.33739463086554        0.02342841433800
C           39.29129396137022       -0.08732326341045       -0.02012578011414
C           38.65475478493141        1.16647077368793       -0.05326260005571
C           39.28686102411201        2.43865330573539       -0.07548341780846
C           38.31007514290031        3.39564633278442       -0.06118533850208
C           37.05029046583346        2.73527124232431       -0.03008977566173
N           37.31024147393685        1.39047126372475       -0.03130751425961
C           35.78985167214271        3.33494730348052        0.00560383745511
C           35.76479329104527        4.82710835151222        0.02517952615160
C           35.72792723834815        5.54255453979598       -1.17503093224609
C           35.70994922058011        4.80710718437917       -2.48856037250859
C           35.71119591397327        6.93208767614450       -1.14248050259338
C           35.73140974519070        7.61918518953019        0.06686807811352
C           35.69520743830800        9.12349974735902        0.08932214795133
C           35.76487739241345        6.89711956541570        1.25527464751506
C           35.78221043754240        5.50729431131201        1.24635676227082
C           35.82222410722726        4.73424555659813        2.53768649355586
C           34.56972854261696        2.65748345057177        0.02787995834358
C           33.27677914572966        3.32299787673694        0.05764007840139
C           32.34553545831458        2.34765999701040        0.05770625496716
C           33.06944593326372        1.08815508395441        0.03106781706632
N           34.40570485957238        1.31278693202328        0.01550720110529
H           31.35769526187487       -0.15621301254588        0.02188002118000
H           31.34717697447419       -2.81809270055188       -0.02462777419147
H           33.25423803219412       -4.70088278606092       -0.03148621886727
H           35.11462923457538       -0.91259049419687        0.02153680751824
H           35.10565316812879       -4.35158533581840       -2.59719296602383
H           36.02870297571410       -5.65066656222353       -3.37308903454864
H           36.86889713862363       -4.32023278803564       -2.55711946122396
H           36.04572351461323       -7.66569648263188       -2.17862020311168
H           34.99890416820287       -9.74559599291264       -0.06396828095692
H           36.52581270966776       -9.73436248558739       -0.95364607955821
H           36.52866651635049       -9.75705523479024        0.82029712200781
H           35.96024106945637       -7.72319029621606        2.09990094102811
H           34.99706964295219       -4.42766064206685        2.57250032963975
H           35.90323157637854       -5.73942562946221        3.34665054558112
H           36.76028656718277       -4.38140756122882        2.59600161911183
H           38.55911266239610       -4.63904624601532        0.05875928245991
H           40.43177004719549       -2.70142828375706        0.04758798945650
H           40.35379112936869        2.59202817243160       -0.09407370080838
H           38.44052661298310        4.46574144449488       -0.06899355002224
H           36.59939686051469        0.66694958059509       -0.00819971958352
H           35.63247429409287        5.50310090144178       -3.32325489562513
H           36.62330408266843        4.22072932244969       -2.60649261771739
H           34.86416536213909        4.11834751084749       -2.52628923424744
H           35.68397935842339        7.48696234386092       -2.07463396504816
H           36.19002194362302        9.51094214095076        0.98023274349962
H           34.65923205110136        9.47037500712322        0.09815607827627
H           36.18316522129903        9.53695397838345       -0.79369946772451
H           35.77980734403825        7.42441342667941        2.20359204689856
H           35.79503931222280        5.40655672868333        3.39469071476535
H           34.97125480684310        4.05348468326759        2.59893553744587
H           36.73334533701442        4.13521078857509        2.59242541170766
H           33.13397722163992        4.39185477000723        0.07403267315887
H           31.27068677686478        2.43912414820272        0.07496768528827
C           61.13633261084573        0.13450977531871       -0.04963239603652
C           60.51700623342239        1.36795549618689       -0.20543903660764
C           61.14823350352381        2.63519542018126       -0.35684935158857
C           60.16948591411977        3.58150331805076       -0.47621041762269
C           58.90894118079888        2.92223427967730       -0.40324497893696
N           59.16944341516829        1.59093464741895       -0.24012016442704
C           57.64341110413272        3.50735655948851       -0.48246914932246
C           57.60775813436172        4.99001530128434       -0.65343312777830
C           57.59916810088817        5.54615636245513       -1.93562836797421
C           57.62288944356610        4.64893418748628       -3.14437495985350
C           57.56489457088593        6.92822838277734       -2.08145617075453
C           57.53795334023040        7.76372149610643       -0.96984481414281
C           57.51931036952439        9.25912589650719       -1.13807285807294
C           57.54766311095643        7.19943521943253        0.30174351866346
C           57.58179114851175        5.82036144335544        0.47096255086788
C           57.58642950181353        5.21828563354893        1.85084853948402
C           56.42747598975730        2.82851213020206       -0.41126837948921
C           55.13784342574323        3.48883936870640       -0.49929697294295
C           54.20505524442336        2.52039648216868       -0.38446372037503
N           56.25709641601306        1.48753625980708       -0.24799928086853
C           54.92600912003097        1.27179201350421       -0.22712182219278
C           54.28307428668349        0.02963423961144       -0.05401380395480
C           54.92742723333409       -1.20813763845981        0.12553702304040
C           54.30413962282168       -2.47467428595457        0.28447289597240
C           55.28754034279125       -3.41700857360052        0.40715969054188
C           56.54300440957308       -2.75304754196132        0.32444342364156
N           56.27369968376304       -1.42059403717041        0.15643993298371
C           57.80739630806824       -3.34132242265356        0.39442336755522
C           57.84025847127415       -4.82248163746596        0.57527857152080
C           57.84277858151620       -5.66153264179404       -0.54284932001788
C           57.81560054160177       -5.07067698494845       -1.92736709054667
C           57.86577071085735       -7.03962486863785       -0.36342349962549
C           57.88531343873214       -7.59433158091792        0.91214372568921
C           57.92700225905360       -9.08784522008169        1.09214122070378
C           57.88590739036165       -6.75006878108777        2.01753449561405
C           57.86310753833665       -5.36896703249939        1.86157682577787
C           57.86012000185259       -4.46269316982134        3.06377093491349
C           59.02425494475217       -2.66348823651640        0.30616930300588
C           60.32082269967859       -3.31763206217424        0.38648334051811
C           61.24705336518985       -2.34538344057967        0.26257886301610
C           60.51646978377675       -1.09931504748320        0.10599774285926
N           59.18124342993190       -1.32859101367953        0.13701761958436
H           62.22138483660480        0.14508310756897       -0.04903048630031
H           62.21563836116611        2.78833387308588       -0.36995561870647
H           60.29648085260207        4.64454333775178       -0.60433827267326
H           58.46035571201726        0.87057462220267       -0.15570602225101
H           58.52402309612929        4.03266420313012       -3.14174723127290
H           57.60236675312313        5.23352722824347       -4.06363676220869
H           56.76084430070247        3.97932974133127       -3.13564015057304
H           57.55658560873952        7.35913062958450       -3.07734984446133
H           58.54017321688693        9.64802877167444       -1.12122139994181
H           57.06538772177552        9.53815288172684       -2.08919229944912
H           56.96341889303818        9.73352096538863       -0.32884323175760
H           57.52580361717479        7.84356871747494        1.17477155289468
H           58.48482759581056        4.61606149758012        1.99916113953357
H           57.55668877966475        5.99492077418945        2.61450298485519
H           56.72167555669792        4.56511723580940        1.98166077842523
H           54.99404588265917        4.54954849138839       -0.62925749169262
H           53.13121915284649        2.61757942943869       -0.39478483836924
H           53.23838093539625       -2.63580702922199        0.29673409630888
H           55.16422351367503       -4.47955489272700        0.54107080875652
H           56.97962284515359       -0.69808833467874        0.06174181895032
H           57.88662730651079       -5.85075329808807       -2.68467934882190
H           56.88813946364259       -4.51628423086736       -2.08368578975006
H           58.64627615160182       -4.37553874374717       -2.06044591446591
H           57.86617923958006       -7.69041159344640       -1.23177408472394
H           57.47132250233275       -9.37826155192132        2.03903812548468
H           58.96339575124369       -9.43352051920381        1.09348135008117
H           57.40338702937482       -9.59144678465044        0.27908499215143
H           57.90210264810720       -7.17348224141554        3.01652431676232
H           57.90445897686883       -5.04023042440854        3.98665841788954
H           58.71690826551755       -3.78720090920165        3.03143673776713
H           56.95469188882355       -3.85277936041408        3.07622864469214
H           60.46938224747514       -4.37744555835199        0.52000375525395
H           62.32248227969253       -2.43092690842974        0.27190445673382
C           40.70103433557860       -0.07723793554666       -0.03041164270491
C           41.91756452146455       -0.06360304943729       -0.04093183956989
C           51.65716880722735       -0.01066699985192       -0.05502453077619
C           52.87396168398516        0.01088211109339       -0.05665521735635
C           43.32661626345403       -0.05835678104962       -0.04567028071229
C           43.96336423968724       -1.06682607052928        0.70066242636261
C           43.33599681231837       -2.07549890179602        1.47802301270562
C           44.31774627152776       -2.82079438641405        2.07188378881824
C           45.57415102735586       -2.28773425618593        1.67304030619424
N           45.30914081358554       -1.23311405262310        0.84111861541429
C           46.83666774333423       -2.74151540703080        2.06445201432834
C           46.85233966554443       -3.89513896304644        3.01237251369727
C           46.87341622522293       -5.20435694234931        2.52318540524042
C           46.88514816850484       -5.45209674367920        1.03824970016985
C           46.88137274941133       -6.26797225400319        3.41779265842147
C           46.86764139435486       -6.04717499974902        4.79143179872707
C           46.89440225851558       -7.20886252655457        5.74771040358152
C           46.84880776561987       -4.74043482656929        5.26690640360984
C           46.84038116361940       -3.66144583349517        4.39046906184157
C           46.81751531059792       -2.25024816499813        4.91454000393643
C           48.06223178928239       -2.21378171330518        1.66348477354354
C           49.34068555257399       -2.73486869502449        2.11261826322483
C           50.28974587130035       -1.98184936336349        1.51810900365747
N           48.25510837587259       -1.16543723113649        0.81633967392397
C           49.58971239345507       -1.00340730938771        0.70901511515210
C           50.24866964305422       -0.02195246669779       -0.05751689231486
C           49.61092357105335        0.96316122955349       -0.83435261280268
C           50.23736039346595        1.94631129415384       -1.64424916257559
C           49.25526616255254        2.69019341438994       -2.23924253685149
C           47.99923662896739        2.18162225186647       -1.80872813128647
N           48.26509407729782        1.13883537486691       -0.96207077294828
C           46.73659002196655        2.65545052085029       -2.17494704218338
C           46.71983494446393        3.80904770236638       -3.12279401603374
C           46.67052336286275        3.57569410726217       -4.50009513966292
C           46.63214749548850        2.16473193633268       -5.02385848254692
C           46.65770096885765        4.65495276509410       -5.37617480030285
C           46.69200962424726        5.96155882019127       -4.90110574475040
C           46.69730416341795        7.12291433762749       -5.85816418655599
C           46.74142594285404        6.18203205029684       -3.52825047355094
C           46.75556521322673        5.11816584313150       -2.63405371227174
C           46.80595343721654        5.36516672887046       -1.14978238337952
C           45.51110949297016        2.14925436306618       -1.74653018750208
C           44.23207444656686        2.70094698765080       -2.15602590284552
C           43.28348897815182        1.95042726868181       -1.55756353718717
C           43.98467789265997        0.94212403726874       -0.78693250419326
N           45.31940482891309        1.08871203278991       -0.91499013208975
H           42.26968292869107       -2.20349779390294        1.57100940191016
H           44.19094415348226       -3.66453218805591        2.73076487935971
H           46.01366531139431       -0.65035520022085        0.40161596503097
H           45.98054361205190       -5.04784929080233        0.57971873667996
H           47.74225356622686       -4.95728288924907        0.57796988028097
H           46.93881232068385       -6.51867195965441        0.82212638514599
H           46.89656131273919       -7.28433622530967        3.03791056497290
H           46.48214679595068       -6.92560369273633        6.71632597877603
H           46.32241090004980       -8.04900895519721        5.35260970046567
H           47.92373837495443       -7.54200492215373        5.89950500181655
H           46.83844853371332       -4.55809933470193        6.33656210101399
H           45.92062179215845       -1.73209517980863        4.56954393604656
H           46.82923008194068       -2.23956723563600        6.00400992220707
H           47.68416165213710       -1.69617714616419        4.54934383424850
H           49.46611003113773       -3.56348542417010        2.79108683457807
H           51.36172359747488       -2.05661821519185        1.60795094669921
H           51.30327682200125        2.05922283719703       -1.75773393068970
H           49.38153690771389        3.51777030939510       -2.91839281225847
H           47.56081237066049        0.57275952927687       -0.50092156294835
H           46.57707365506003        2.15506242245936       -6.11198089545683
H           45.76522595451755        1.63530502663588       -4.62453764244607
H           47.52683096231369        1.62113942621290       -4.71423867943186
H           46.61871554446728        4.47289848842001       -6.44521818861512
H           46.23348949871747        6.84853602213667       -6.80582358145089
H           47.72507597988533        7.43402129773937       -6.05954524142662
H           46.16275077075206        7.97484246418751       -5.43692276257038
H           46.76766300387902        7.19830431532879       -3.14873057095724
H           47.70672681135249        4.92085313860244       -0.72194499884857
H           46.80684651767061        6.43286378764323       -0.93266987333083
H           45.94386382112015        4.90840697782702       -0.66031149247699
H           44.10602724841799        3.54761923202102       -2.81167106552257
H           42.21108671135593        2.04523747540592       -1.62066270710666
