187
 energy: -372.211522871261 gnorm: 0.000993008576 xtb: 6.5.1 (b24c23e)
Ni          32.32124674661962       -0.00583054233760       -0.07663771622781
C           28.93048477876207       -0.01953443121887       -0.20495777909786
C           29.58477820052310       -1.23262286623707       -0.25100610734920
C           28.91010942077106       -2.49329623646837       -0.31290410991100
C           29.86920804300379       -3.44152479026813       -0.42195527207989
C           31.12905984693795       -2.75640561451226       -0.44422391334495
N           30.94574701090519       -1.40443969073712       -0.30040464773549
C           32.35233958117158       -3.38687253908139       -0.63355175917433
C           32.36956795819967       -4.84945312622433       -0.86547255116130
C           33.03282323323272       -5.69587726398209        0.02797660452980
C           33.05036673559729       -7.06294515260526       -0.18054724578433
C           32.40382370880535       -7.58750402031982       -1.29600384893912
N           32.42154251702953       -9.02249125817823       -1.52155841458957
O           31.84978937836900       -9.44058881627212       -2.49537482690733
O           33.00658645938979       -9.70520919194522       -0.72065098833317
C           31.74106269120087       -6.76176896276538       -2.19943981588379
C           31.72460698443609       -5.39653128402572       -1.97864271712418
C           33.56142371466458       -2.70299764290987       -0.62328269265699
C           34.82582476527778       -3.31796661210646       -0.89395714214958
C           35.76907427258961       -2.35995309374895       -0.73009879737734
N           33.72650754269203       -1.36831728891613       -0.33365122847253
C           35.07899318504229       -1.16351059683687       -0.36581161183604
C           35.73457490741021        0.02066200095599       -0.02023241292385
C           35.05043934223966        1.18980713195565        0.32119723525064
C           35.70903949774637        2.38673443563833        0.73783235126156
C           34.74415176871621        3.32166556906744        0.90930193120473
C           33.49919475217020        2.69508040936248        0.58109912801843
N           33.69606515639309        1.37231401398336        0.25711551190112
C           32.28067274284854        3.36141096869373        0.55708383723167
C           32.26076263607165        4.81453357874652        0.84201106750059
C           31.54359129750195        5.30790812166385        1.93602824568041
C           31.52362834428694        6.66343150647554        2.20962715397412
C           32.22247393139808        7.53391905927300        1.37820623580346
N           32.20311949916698        8.95892187411716        1.65974374646835
O           31.56561427147728        9.33028421293091        2.61142626819868
O           32.82713422794262        9.68059067488285        0.92510268550377
C           32.93927214133241        7.06346164356160        0.28172723491694
C           32.95718116188218        5.70552521281607        0.02002046213006
C           31.07956852790269        2.72448233884453        0.27077367376738
C           29.81884991825341        3.40100589783378        0.17085237236975
C           28.88122750728471        2.45085838074373       -0.05031888665321
C           29.56998023669113        1.19695488356719       -0.09230358408197
N           30.92105821290570        1.37651966266397        0.07256326251965
H           27.84781602123569       -0.02307330867480       -0.25054743466486
H           27.83967739261246       -2.61603586418599       -0.27273115816416
H           29.74775017092529       -4.51091439862685       -0.47944848325727
H           33.52336630347790       -5.27523182172150        0.89800569128789
H           33.55613498709418       -7.72777346161995        0.50929139878096
H           31.24951675841112       -7.19494126601112       -3.06225076770694
H           31.22218855858375       -4.74159359796453       -2.68086795983778
H           34.96346260679518       -4.34765573398572       -1.18059994830480
H           36.83825033348298       -2.44093473728473       -0.84069408778129
H           36.77327463793325        2.48239953428814        0.88000112309614
H           34.85554508107423        4.34336075627333        1.23343853756561
H           31.01282873904018        4.61818643635440        2.58185121615197
H           30.97627370894855        7.05494274843419        3.05863133647901
H           33.47090070316843        7.76258951920531       -0.35252902676259
H           33.50174327261686        5.32748695637291       -0.83733239513333
H           29.68321007109323        4.46702014137282        0.25383244338103
H           27.81654994528156        2.56753056652121       -0.17418574870884
Ni          59.18759019539942        0.06196223120565       -0.02501048961249
C           62.57698786921268        0.11709845358252       -0.14993325616476
C           61.92581023361847        1.25765151769434        0.27105280691372
C           62.60221756554462        2.44717827089104        0.69043223969098
C           61.64492933264607        3.37095062492959        0.93822801421715
C           60.38445882409125        2.74859680124699        0.65363755503770
N           60.56533451977786        1.43986709672652        0.28441175240172
C           59.16332640420977        3.40963781264995        0.69857899433849
C           59.14966511508413        4.85546064648563        1.01831181275323
C           58.47687563412629        5.31921553964831        2.15271592125812
C           58.46364082259682        6.66767238619054        2.45951560013580
C           59.12387549005622        7.56094920312582        1.62071995512396
N           59.11095956943956        8.97876728525856        1.93690091134966
O           59.69662183446704        9.72128317145173        1.19151659234316
O           58.51604216555518        9.32379885943850        2.92534787884796
C           59.79606582916954        7.12012041845160        0.48442409332812
C           59.80832928165671        5.76886225091741        0.18984504231338
C           57.95373043710008        2.77385731914564        0.44851695882468
C           56.69132474420680        3.44827588142232        0.41093304020730
C           55.74620209359261        2.49761435960581        0.21633493349672
N           57.78572865186968        1.42487325915943        0.23706031870047
C           56.43319447002009        1.24827766031509        0.13074365769132
C           55.77593986898377        0.01832645456588        0.04176097487074
C           56.46039042203120       -1.19624073468101       -0.05421001821972
C           55.80380145145563       -2.46415990318634       -0.08512411175077
C           56.76652889496708       -3.39557439196399       -0.28682948738453
C           58.00790687298770       -2.68996616094540       -0.39226865689631
N           57.81237672394282       -1.34090863471796       -0.20491780592839
C           59.22039531018644       -3.29664565206104       -0.69507044112743
C           59.23363173236369       -4.74822599210644       -0.98666539295952
C           59.97754027957000       -5.62282025862229       -0.18899264387566
C           59.99260696053499       -6.97921619600845       -0.45878733592841
C           59.26143931923990       -7.46454931996811       -1.53917451423230
N           59.27676464282222       -8.88783152033034       -1.82948696684537
O           59.94131025643141       -9.59489278943816       -1.11649407935931
O           58.62387804174085       -9.27265268051406       -2.76525217446762
C           58.51626729888741       -6.61038180122216       -2.34698257600405
C           58.50373133331777       -5.25646357741302       -2.06547411174092
C           60.41995494561330       -2.59716134810931       -0.74482053241305
C           61.67577481883622       -3.18332858765322       -1.11408078289056
C           62.61606895621572       -2.22206058295851       -0.96266004576680
C           61.93344215820969       -1.04789813273093       -0.51126384861328
N           60.58309955687167       -1.27584278686548       -0.41460446905075
H           63.65957725915539        0.13541028490491       -0.19366164978987
H           63.67251494445534        2.54240902310287        0.77937192351230
H           61.76802447647912        4.38391151898405        1.28526119013754
H           57.97578289457597        4.61168269859277        2.80297361166241
H           57.95091424694367        7.03625428966465        3.33982348854673
H           60.29811865296161        7.83664775729508       -0.15450841931521
H           60.31821999759575        5.41388310323146       -0.69813024372824
H           56.55611303202499        4.51256774814294        0.51295907942314
H           54.67753880017577        2.61562900715457        0.13887614018620
H           54.74219452809371       -2.60723582631145        0.03533683537454
H           56.65602168429641       -4.46545516198580       -0.35400996868218
H           60.53335561305467       -5.23356500828714        0.65601959524739
H           60.56111719637401       -7.66589942860328        0.15680268131847
H           57.95920439651710       -7.01298698559554       -3.18439950336383
H           57.93745850427504       -4.57893714473246       -2.69382669370247
H           61.80708773506445       -4.19910103102334       -1.44967915936385
H           63.67879346634322       -2.28306207914038       -1.13411377146436
C           38.36233360597356        0.03753680318521        0.00628580461368
C           37.14117377937588        0.03175420863542       -0.00534732975880
C           39.71341703470209        0.03951118282578        0.01638517736758
C           40.93469296497215        0.03491123622621        0.02239673533025
C           51.79836274606713       -0.01616714371283        0.05695456493896
C           50.57682857599050       -0.01879583973672        0.05133138983584
C           53.14885516550930       -0.01004898843266        0.05710892903708
C           54.37024374551838        0.00228423025551        0.05374124952914
Ni          45.75582945684984        0.00640113761340        0.00786857626808
C           42.34085622404464        0.02779011801225        0.02020943773953
C           43.00653698672241       -1.18384891878383        0.22420810109342
C           42.33110198513258       -2.41598859409499        0.47928291907674
C           43.27973739529379       -3.38319628132029        0.49543013961023
C           44.53148725107827       -2.73738171753356        0.24078461080325
N           44.35667165586450       -1.37826411609879        0.11895107932653
C           45.73582761265592       -3.41195984913912        0.08499463287519
C           45.72590531790365       -4.89233993374070        0.11660369540949
C           46.44758274141882       -5.58151315294889        1.09580644546522
C           46.43756527093271       -6.96398676595574        1.13314259691448
C           45.70410023240186       -7.66326281729848        0.17906779299243
N           45.69133861410437       -9.11589223784553        0.21297520586456
O           45.04222481037075       -9.68681199918476       -0.62485616644439
O           46.33289842887000       -9.65834394788744        1.07555599104797
C           44.98181768210164       -6.99624918522010       -0.80612102522699
C           44.99338152871022       -5.61345151861275       -0.83100355665942
C           46.94901442633485       -2.75920723348645       -0.09287642163271
C           48.19537836793147       -3.42988677994116       -0.30602634600172
C           49.15624527659557       -2.47458486647001       -0.31374446377057
N           47.13963946332636       -1.39830314110215       -0.02418037863306
C           48.49325186504983       -1.22499021787812       -0.11869896906495
C           49.17148639622305       -0.01320741775265        0.03995720575173
C           48.50431167500998        1.20752869382563        0.17589806991830
C           49.17809156576900        2.45271602271256        0.36233865125922
C           48.23039688413944        3.41951547986415        0.30664476700351
C           46.98080781592803        2.75934702929954        0.08024894520408
N           47.15551347689435        1.39540982374831        0.04599175079695
C           45.77841486150580        3.42340490841439       -0.12784386786582
C           45.79374699325923        4.90189313009961       -0.20632850768814
C           46.53454759899957        5.54394273778333       -1.20325540155229
C           46.54996666853053        6.92416998135052       -1.28835660388563
C           45.82312015151922        7.66895597706577       -0.36412617095115
N           45.83740757907099        9.11949500160904       -0.44789060503393
O           46.49425566268032        9.62019254339022       -1.32396927970451
O           45.18840362709111        9.73051571828223        0.36142119168887
C           45.08319213759980        7.04939070405888        0.63879336291135
C           45.06965761191334        5.66827190137356        0.71165960311035
C           44.56480419624237        2.76182383644175       -0.26468822473112
C           43.31873292375364        3.41903773401536       -0.51838938073438
C           42.35716680596274        2.46600050264491       -0.46662614478979
C           43.01948526735060        1.22979141228817       -0.19755864354834
N           44.37311699930347        1.40776291202884       -0.11215218624267
H           41.26720055945129       -2.51269264913064        0.62323340332990
H           43.15311472400055       -4.43924632587302        0.66896982714429
H           47.00501192172013       -5.02455772690137        1.83983193515419
H           46.98787451679181       -7.50718769450798        1.89194477433938
H           44.42246131922305       -7.56444991120300       -1.53960119267761
H           44.44379375947678       -5.08189774797393       -1.59906680309988
H           48.31079356169416       -4.49345099295708       -0.43599853620589
H           50.22075918960198       -2.58987800068060       -0.43826563223585
H           50.24042055725682        2.55802353943748        0.51175216875178
H           48.35608863239300        4.48437375821935        0.41471869965960
H           47.08718028925760        4.95151030095355       -1.92309028875496
H           47.11515841130083        7.43088922217883       -2.06132402969329
H           44.53022282302945        7.65255778619746        1.34879299104230
H           44.50717895112489        5.17366126145384        1.49489892585718
H           43.20371203900596        4.47269501946200       -0.71305825714000
H           41.29270012847966        2.57458461555317       -0.59727205781800
