126
 energy: -218.911597871499 gnorm: 0.000722016498 xtb: 6.5.1 (b24c23e)
C            9.09055320234854        0.12078913766179        0.04170397811519
C            9.70159371960630        1.25041169990901       -0.48746475128226
C            9.05118203125682        2.39512178350882       -1.02745031776041
C           10.01481296090911        3.27999813916470       -1.42278171603798
C           11.28523267517584        2.70865491308694       -1.12741248834414
N           11.04525113397431        1.48174720711385       -0.57631125243168
C           12.54999036804549        3.26308738543819       -1.35748611367761
C           12.58662149122731        4.62850277602628       -1.93510693549684
C           13.21507401515342        4.86214726634662       -3.15906752322913
C           13.25016415245029        6.13495590366307       -3.70662715807124
C           12.65763773716458        7.19653410292519       -3.02664198306272
O           12.67093380267313        8.45952816656411       -3.52511671408173
C           12.02912259610824        6.97794607311696       -1.80208808850561
C           11.99341921494485        5.70252207802244       -1.26676331137912
C           13.76280919723180        2.62528549121854       -1.08491865100532
C           15.06293522630107        3.24504888859652       -1.26705868272948
C           15.98029334175754        2.32100099132718       -0.91342144743838
N           13.91271112329570        1.35899046957920       -0.60633358367715
C           15.23951221108528        1.14375016198655       -0.50439049797343
C           15.87310747866397       -0.04000573832997       -0.07219100599596
C           15.23383127384476       -1.20255729077806        0.39958868650866
C           15.87326972889449       -2.40088084349976        0.81344521683430
C           14.90517692014033       -3.27692903475450        1.22044734535112
C           13.64380719923474       -2.63600206075789        1.07485900736764
N           13.89420610903943       -1.38863257622963        0.56567297902000
C           12.38224350651391       -3.16491923761408        1.36844740981961
C           12.34663290573454       -4.52664669431715        1.95412618479449
C           12.97870874680092       -4.79479864434064        3.17105590005101
C           12.94395071215208       -6.06250856778437        3.72423133229251
C           12.27814467531886       -7.08955078230096        3.05774869057258
O           12.26735987213375       -8.32265916412115        3.62625358432706
C           11.64679399371755       -6.83854713892944        1.84167132003880
C           11.68022524877666       -5.56331677538686        1.29938647098760
C           11.16908586667176       -2.50316801074959        1.14848476435489
C            9.86622927843546       -3.04095326078163        1.50782837189670
C            8.95524223310869       -2.12188015355993        1.12880757331585
C            9.70094831586479       -1.01768483897791        0.55151838192067
N           11.03094263108548       -1.27782745549296        0.58893309048898
H            8.00541679266976        0.14038149266975        0.05779544472676
H            7.98182644413469        2.51161508484831       -1.10376131753422
H            9.86401524013115        4.24090528609518       -1.88741759660326
H           11.77054829576960        0.83720000488979       -0.28004698857326
H           13.66472000804957        4.03445532938852       -3.69605184545464
H           13.73469747690180        6.30859720129056       -4.66146148252146
H           13.13667277821007        8.49944386724264       -4.37121484655464
H           11.57724257231899        7.81338953666924       -1.28175113196704
H           11.51829129982328        5.53723001859716       -0.30615402556630
H           15.23028385664591        4.25564016991214       -1.60276892999888
H           17.05506522422606        2.40747043809657       -0.91019903363642
H           16.93872320262936       -2.56428314330270        0.79336889569729
H           15.04856244920403       -4.28288087756590        1.57980592836100
H           13.17427618745202       -0.70992655153715        0.34045774662240
H           13.48470311713940       -3.99329691808374        3.69770419142311
H           13.42585172385356       -6.27036471003460        4.67157024657535
H           11.77852089602949       -8.95641605537667        3.08429992193670
H           11.13359134595174       -7.64194635501761        1.32410067589704
H           11.19975720880284       -5.37289698422366        0.34617995397692
H            9.69679571538567       -3.98715923833565        1.99619474247685
H            7.88139022433309       -2.15477024308941        1.22719583255192
C           34.39863004210333       -0.02775312072029        0.13087919751773
C           33.78739633159982       -1.08336562262104        0.79533612031747
C           34.43775562243739       -2.15512142512168        1.46866290166926
C           33.47401398242963       -2.96781850232196        1.99642070367975
C           32.20350244613839       -2.41273383705026        1.67168737082604
N           32.44367033490197       -1.28533848365652        0.93826440863465
C           30.93879794457760       -2.90856501195272        2.01011662194112
C           30.90241332788877       -4.13390885152864        2.84481539621953
C           30.27821602089311       -5.29075335206758        2.37613100157951
C           30.24319123558656       -6.44052209277603        3.14938499738348
C           30.83143019979452       -6.44249420666330        4.41207685645025
O           30.81789062234885       -7.54561033989355        5.20378466673442
C           31.45574399167015       -5.29331029350792        4.89368529865971
C           31.49143810276673       -4.15241787148402        4.11160730106596
C           29.72569518507611       -2.33578675280396        1.61974461486611
C           28.42566464188848       -2.82675729653763        2.03988301011542
C           27.50801340253203       -2.02869481593491        1.45547935072661
N           29.57538187493656       -1.24673452293626        0.81581984523230
C           28.24846942039547       -1.04511093900478        0.68983487407910
C           27.61468178317900       -0.03950000679757       -0.06944879862284
C           28.25400663576103        0.98655585135982       -0.79137192364432
C           27.61476208723925        1.98395663860418       -1.57408454326374
C           28.58318689404358        2.79905031447877       -2.09179282690415
C           29.84457887925525        2.32806435820109       -1.63340605179908
N           29.59387906125367        1.22514323165936       -0.85975106854276
C           31.10618478773006        2.85976602763428       -1.92145291134001
C           31.14133665705548        4.08883463717211       -2.75025286297177
C           30.51298849941731        5.25847132704435       -2.31505645029076
C           30.54737864863550        6.40958126188054       -3.08189114348389
C           31.20900154919181        6.40351982091593       -4.30847862746482
O           31.21959640625075        7.54886503985996       -5.03783732091815
C           31.83650189855446        5.24380555871241       -4.75764119723618
C           31.80354593642048        4.09777884724921       -3.97855549931079
C           32.31960292342048        2.31690177035335       -1.48466709904499
C           33.62228357331793        2.90944014517862       -1.74482501554668
C           34.53354474370180        2.09559300078801       -1.17430518849258
C           33.78819930365596        1.01437333968926       -0.55462963367654
N           32.45814610391649        1.18534270592484       -0.75391988722318
H           35.48370511098547       -0.02355110374527        0.15823202684550
H           35.50717246693103       -2.28024150073154        1.52870489754239
H           33.62470562746930       -3.87789593836956        2.55409989982852
H           31.71861925604644       -0.68871443014491        0.55408073735081
H           29.83200538290608       -5.29486542994808        1.38796816142454
H           29.76204983812415       -7.33836818203953        2.77655357712417
H           30.35449527547243       -8.27923513545253        4.77780259413233
H           31.90430229451580       -5.30736050285477        5.87933579074985
H           31.96315030609288       -3.25425324773625        4.49451506973713
H           28.25852695130510       -3.65783534960670        2.70575012783026
H           26.43321430012987       -2.07399977950153        1.52892951417166
H           26.54920111698833        2.05692594749416       -1.72087848364053
H           28.44001727173621        3.64592247624282       -2.74290519510215
H           30.31368412206265        0.66790409742370       -0.41140982807008
H           30.01019888130720        5.26849713257004       -1.35438123892761
H           30.06842306556430        7.31965130501247       -2.74240690447324
H           31.70574196616715        7.43515138415085       -5.86551845350224
H           32.34640340053873        5.24229077265032       -5.71508522656861
H           32.28109930809757        3.19221215197201       -4.33576881530482
H           33.79142739886115        3.83020190760830       -2.27970913850119
H           35.60737631510458        2.19649363308304       -1.14930429432076
C           17.27754554821217       -0.06985815094170       -0.10281139266452
C           18.50214363123921       -0.08360965746059       -0.13058676937273
C           19.84425642402310       -0.09360993265145       -0.14965547826037
C           21.07509461785396       -0.09140171133480       -0.16728200467496
C           22.41264655816581       -0.08326434754468       -0.17031284544714
C           23.64362542135284       -0.07160775900136       -0.16236751665782
C           24.98574609312676       -0.06172252652462       -0.14281789657423
C           26.21020199126646       -0.04739537383955       -0.11064585028502
