384
 energy: -738.351488753634 gnorm: 0.000356012649 xtb: 6.5.1 (b24c23e)
C           81.74208122478277       -0.20864711063540        0.12831775916749
C           82.33840350401782       -1.06208744033572       -0.79088839001740
C           81.67339553724844       -1.91481289917665       -1.71645484482579
C           82.62552775918026       -2.58297176184013       -2.43322004665973
C           83.90377857344656       -2.17183962964088       -1.95804130599209
N           83.67913930420133       -1.24658300104309       -0.97791050086335
C           85.16190589116549       -2.60264488757734       -2.39268471339152
C           85.18920292413870       -3.62519033315667       -3.46775053688170
C           85.81694386995306       -3.33150937323149       -4.68175539648609
C           85.84377186840082       -4.28276067345049       -5.69352616051198
O           86.43438426400564       -4.06373971454336       -6.91050243415248
C           85.25334604717530       -5.52906210298410       -5.50032043909759
O           85.26961031107204       -6.48668063459581       -6.48011511126496
C           84.62864944358462       -5.82455879823190       -4.28752898355307
O           84.06076331063029       -7.04190606235568       -4.10782869306352
C           84.59380145008797       -4.87198734747870       -3.27560487354388
C           86.38208467215746       -2.13889514388089       -1.89277737547894
C           87.67376336804450       -2.66778572441294       -2.29194615336318
C           88.60163400234249       -1.97017899181374       -1.60409526428059
N           86.54692968896353       -1.15507721407693       -0.96706040770008
C           87.87655094871329       -1.02074348429557       -0.78270430006872
C           88.52215375782255       -0.07809341180682        0.04082521264350
C           87.89821408305734        0.86909082486876        0.87282966360864
C           88.55085834194642        1.84369776328522        1.67351336422123
C           87.59283690514525        2.54030908098049        2.35637273793149
C           86.32412335856621        2.00192510228070        2.00416189944566
N           86.55996007933594        1.00551868915942        1.09414870716798
C           85.06881250189066        2.40152560860967        2.47556861866965
C           85.04924925100565        3.47988738378005        3.49414491551044
C           85.70510132187727        3.30691156696530        4.71363889486481
C           85.68639537478479        4.31927003758359        5.66578436061640
O           86.31530246152978        4.15856166694049        6.85583855101015
C           85.01664085025907        5.51410705716881        5.39742749859194
O           85.02000114885986        6.49657572509374        6.35251711939007
C           84.36414946316577        5.68775856128295        4.17944910151017
O           83.73315752011753        6.88859347940727        3.98624855702593
C           84.37477219985186        4.67498467588102        3.22867422032029
C           83.84955579587776        1.85686794886308        2.05821882999446
C           82.55506354316643        2.22825836116203        2.60815593882715
C           81.63486062352824        1.49572536358864        1.94876141493135
C           82.36636629296436        0.67023712545219        1.00412234166726
N           83.69732734154853        0.90614144993770        1.10584830118600
H           80.65729017583955       -0.23392026809820        0.15477212552617
H           80.60241521835434       -1.99119530256794       -1.81646179213789
H           82.46267032227183       -3.29525443043475       -3.22563984663961
H           84.41209834050591       -0.76671884049609       -0.46631565334362
H           86.26700101549847       -2.35903286083477       -4.84335852782669
H           86.81581512991917       -3.17699112508860       -6.95228689931040
H           85.73887478470627       -6.12163333404418       -7.24714054122785
H           84.19195416825762       -7.56259735507660       -4.91742653211404
H           84.12291463322235       -5.11986706491564       -2.33310159895845
H           87.82863440376852       -3.47474842052095       -2.98982482069613
H           89.67476912664384       -2.07157070994722       -1.63317954258194
H           89.61816441335968        1.98896784872577        1.71460660886210
H           87.74848580633481        3.35868179286464        3.04011794078131
H           85.83302932487148        0.44932679470604        0.65610932028885
H           86.21322174547781        2.37840591310970        4.94001032427240
H           86.18247388294931        4.96429248547265        7.38204740972793
H           84.50999135790825        7.24785066618751        6.00999651544520
H           83.30432062110889        6.91612695705416        3.12087942417033
H           83.87828123620783        4.82338409000732        2.27694926136440
H           82.39754201811438        2.94166932867218        3.40113958148497
H           80.56330078881714        1.48627073912573        2.07345333681201
C          142.90735829580169       -0.03296008206867        0.22737598789218
C          142.30015353933555        0.82963101372270        1.13074916157354
C          142.95562415883538        1.69834443490481        2.04822632424541
C          141.99617841035550        2.37492530028943        2.74710620040322
C          140.72255555256638        1.93283373487325        2.28761282899715
N          140.95741134481173        1.00956741450274        1.30805112916593
C          139.46041256944085        2.35562651260811        2.71885739717571
C          139.42690879393129        3.35626187377332        3.81452308542500
C          138.82876906249294        4.60127678951094        3.60122183319956
C          138.79749441949028        5.53702597697365        4.62752754461749
O          138.23509865003535        6.77908582161254        4.49043618342630
C          139.35393206565749        5.23678973711477        5.86827390686425
O          139.33218854233047        6.14027879506157        6.89835623095758
C          139.94948190781818        3.99288324379576        6.08315115385540
O          140.48473834024554        3.70871336332800        7.29559686652513
C          139.98887179898529        3.05720637610540        5.05597273013041
C          138.24505823035508        1.89977225525829        2.20079850518433
C          136.94570846777648        2.29240925745242        2.71583486961428
C          136.02718765271578        1.63700786832393        1.97603114237976
N          138.09336462201369        1.01308469562770        1.17947303291644
C          136.76556015759249        0.84014992696279        1.01562094101081
C          136.13240154509330        0.00427564856951        0.07585177115231
C          136.76422613056272       -0.83652896549754       -0.85761707584510
C          136.11792779037168       -1.62570857834721       -1.84618860375959
C          137.08230569392228       -2.26879651735763       -2.57087018532011
C          138.34936139004171       -1.90050496767143       -2.03918168612566
N          138.10504192485237       -1.02939364991616       -1.01036893994667
C          139.61125472578487       -2.31085167552103       -2.48226644302335
C          139.64504175330711       -3.26410702395893       -3.61863800355073
C          139.03873287622946       -4.51587571565319       -3.50908884992664
C          139.06879370107580       -5.40167346509943       -4.57994585813665
O          138.48843600981689       -6.62227270013327       -4.48105161052318
C          139.69960741465604       -5.03374703160807       -5.76956059593210
O          139.70788183601204       -5.92480676832339       -6.81032773238840
C          140.30275233317957       -3.78341473867344       -5.87956861144050
O          140.89755107262505       -3.49118269284770       -7.07900481621396
C          140.28155884482959       -2.89917452903349       -4.80841427595756
C          140.82604001278796       -1.88292529029471       -1.93577843098810
C          142.12962017577416       -2.37640192641243       -2.35166931802378
C          143.04089882310066       -1.74027339388411       -1.58804708154100
C          142.29527150944443       -0.86314753145673       -0.70280189464282
N          140.96503032641547       -0.98145030384558       -0.93476007574502
H          143.99227798071277       -0.05100812597771        0.25580321765212
H          144.02570842292755        1.78921006406709        2.14581219899715
H          142.15094684184109        3.12056991992579        3.50993728129016
H          140.22940769370186        0.53070134484487        0.78844379107915
H          138.40548067176951        4.84661481330344        2.63429217729495
H          137.87085086894163        6.89505157885408        3.60307232230041
H          138.88325710511299        6.94101492994774        6.58360928803006
H          140.35442659207919        4.47794925714494        7.87439330782002
H          140.43717808996300        2.08938799150308        5.24004707915135
H          136.77933647899425        2.96274705026922        3.54356798637681
H          134.95269337979329        1.66295887696622        2.06336792580682
H          135.05050172465781       -1.67854233603597       -1.98695108543909
H          136.93211237687538       -2.93218919115938       -3.40676337381735
H          138.82948301303705       -0.58499469231610       -0.45597298563226
H          138.56065227364462       -4.81882321233371       -2.58650834173219
H          138.61575529712252       -7.09037074521928       -5.32271617078611
H          140.18301554794763       -5.51514053868368       -7.55073815505658
H          141.28952798392456       -2.60826456686018       -7.06188498797880
H          140.73943804780302       -1.92189090670028       -4.90657071489061
H          142.29863569141148       -3.12105373624214       -3.11294740454624
H          144.11517220128934       -1.83923075143646       -1.59483286946895
C           89.93221728107380       -0.06747126955405        0.03460220453471
C           91.14878205176419       -0.05780949584860        0.03335971614825
C          100.81841560939945        0.00549642078750       -0.02640188806646
C          102.03642284483560        0.01521471198060       -0.03120381061181
C          111.71176101088429        0.04468471003282       -0.04903707273369
C          112.93030813532590        0.04672469102874       -0.04533337920122
C          122.61337475441671        0.01890247862240       -0.07764499354997
C          123.83205880110158        0.01654248268009       -0.07637876195909
C          133.50557712970402        0.00081326093875        0.03139777594965
C          134.72171694962907        0.00405049018574        0.05404907640552
C           92.55811664232158       -0.05105253390142        0.02864768127682
C           93.18804429007379       -1.29721705501865       -0.14575673239468
C           92.54665953579175       -2.55859594882076       -0.24700448648837
C           93.51428190455674       -3.51127891944620       -0.41645787535348
C           94.77560013733783       -2.85671681921678       -0.43385602694982
N           94.52853831498827       -1.52211616944611       -0.25233942937114
C           96.03632321661874       -3.44231634050240       -0.60624156699157
C           96.06318049366043       -4.90533527948611       -0.84807025972817
C           96.75538702505231       -5.74566708675237        0.02532100460080
C           96.78907074561882       -7.12209170146472       -0.17920073744469
O           97.45135506003533       -7.95019974738060        0.66971291043973
C           96.12917849088147       -7.67574933116055       -1.28133777343041
O           96.14856954528075       -9.01387039461109       -1.51187312629976
C           95.44230412373095       -6.82770636707536       -2.15421619795228
O           94.82256393144894       -7.43318820006034       -3.21705155104655
C           95.39850885004364       -5.45627819171976       -1.94564761000475
C           97.25441817243134       -2.76065837872515       -0.56786579863437
C           98.53450609773834       -3.37725574611723       -0.86342360152302
C           99.46737655661437       -2.41509998542036       -0.70472155866135
N           97.42953323623908       -1.44486178899438       -0.26274753510817
C           98.75718755311949       -1.21426338139702       -0.31442790812269
C           99.41162317242474       -0.00125908650441       -0.01691375793222
C           98.77940635718446        1.21813674329271        0.29493455032971
C           99.41930905750900        2.43117363806343        0.65679222923029
C           98.45154659469762        3.38017979645057        0.84313396798526
C           97.19040575760629        2.77389997665833        0.59520372250498
N           97.43846819038924        1.46316711461233        0.28478657051237
C           95.93045548561444        3.38234554007743        0.65543060733261
C           95.91199360662903        4.84071548081212        0.92824588396835
C           96.56530567481664        5.72279086445870        0.06649741018481
C           96.54248843620755        7.08949870266326        0.31782774654218
O           97.16723398226075        7.95459378506545       -0.51790617984914
C           95.87156789677297        7.57900520267210        1.43967754034208
O           95.86877001569363        8.93052305108889        1.66412036905680
C           95.22357502422757        6.69841491320910        2.30240382258710
O           94.59126761335887        7.25244326115544        3.38422031093479
C           95.23836624123994        5.33251007002862        2.04989300930939
C           94.70911901625283        2.72898874207985        0.47721725130893
C           93.42328858354391        3.40279771789411        0.46355744279340
C           92.49026080987028        2.44257134977257        0.29522995709492
C           93.20707244599606        1.18700408573540        0.19669347836830
N           94.53723491582861        1.39152336971037        0.29231784720436
H           91.48169846048323       -2.71263368354582       -0.18425454225759
H           93.36807489169637       -4.57508067032122       -0.50866836647792
H           95.24702596345199       -0.80839024661069       -0.19253308978674
H           97.25964043939913       -5.32816831314303        0.88954130609063
H           97.86108885904925       -7.45553266821260        1.39150029481212
H           95.63548779750924       -9.19108408098373       -2.31673345280935
H           94.37496094582271       -6.78146018815271       -3.77192867952812
H           94.87283093183622       -4.81938122198058       -2.64741439116366
H           98.67772164151107       -4.40039169846301       -1.17125198399839
H          100.53325127823628       -2.48442203152259       -0.84977314662693
H          100.48382676981934        2.55364476432262        0.77027065551771
H           98.59701544999132        4.40658439757954        1.13761614912101
H           96.72073710508910        0.77550193012229        0.08210237347085
H           97.07392474209455        5.35657834713056       -0.81597464991200
H           97.03339808762080        8.85565508943609       -0.18045739112624
H           95.35877874240043        9.09812018301748        2.47262903147786
H           94.16438893577040        6.57064051195324        3.91952181399347
H           94.74436243397888        4.65216345061740        2.73350205593482
H           93.27540856344478        4.46697421445026        0.55154003068929
H           91.41980438485184        2.55148438364653        0.22482136542152
C          103.44276481426182        0.01814792351227       -0.03694858428905
C          104.07653261337549       -1.23768424118958        0.04490425786606
C          103.44510106606283       -2.49562504644069        0.21477266102099
C          104.41392254603393       -3.46227447297715        0.18210464367671
C          105.66580270071822       -2.82081496626625       -0.01634031231387
N          105.41392238217468       -1.47563953756941       -0.06791559569338
C          106.92055541946804       -3.42735316335515       -0.16273068713906
C          106.94345904362073       -4.90859197201836       -0.19668832816085
C          107.71342470775464       -5.61900647189311        0.72604436974574
C          107.74378354444227       -7.01040902268450        0.71533268359305
O          108.48127890266649       -7.71145411867835        1.61521659077508
C          107.00088566475054       -7.71319693101135       -0.23915682553475
O          107.01381928741188       -9.07009656635103       -0.27913259301177
C          106.23621107249389       -6.99555000415385       -1.16317322380785
O          105.53752756943852       -7.74435206350871       -2.07447894857913
C          106.19635588486483       -5.60857552726036       -1.14705138423829
C          108.13500163291562       -2.74692006860555       -0.27552749510823
C          109.40397316171007       -3.39345611287806       -0.55307677970713
C          110.34114346063407       -2.42228612732353       -0.52564854566046
N          108.31837680103952       -1.40594867323024       -0.12268174479814
C          109.64413529552546       -1.18668400920404       -0.23508991838456
C          110.30593909253793        0.04543739998668       -0.05123910743758
C          109.67210223891102        1.29023266209223        0.13463148627640
C          110.30379650593190        2.53220910523301        0.39639743870495
C          109.33526354846984        3.49834996679558        0.43905417901239
C          108.08255906232687        2.87292398533648        0.19825539448224
N          108.33404741609012        1.53547887016488        0.04587499402237
C          106.82736833342346        3.48896375303082        0.10570161149648
C          106.80732636630218        4.96966594728408        0.18288289686339
C          107.54356946429755        5.73281242000862       -0.72462801342264
C          107.52098779482439        7.12039170779699       -0.64981264104397
O          108.22685457080728        7.86962295109709       -1.53138284122279
C          106.76683463624873        7.75143610313114        0.34098990000251
O          106.76771280423877        9.12014927310342        0.39381162553211
C          106.03457901472923        6.99020476546298        1.24877513325945
O          105.32335585801590        7.67955648862215        2.19544197503649
C          106.04888523157474        5.60350127376268        1.17173314500454
C          105.61134468183197        2.82034008890640       -0.04934332226232
C          104.33935772476430        3.48695521415315       -0.25965057792482
C          103.40184862861727        2.51680663780754       -0.30027515828934
C          104.10190465902642        1.26161069089256       -0.11984925601674
N          105.42884037081548        1.47157720784376       -0.00270351820779
H          102.38653147283149       -2.63760519601855        0.35736864407713
H          104.27430880627337       -4.52451365276697        0.29912542983810
H          106.12629253714586       -0.76079899194785       -0.17048432051392
H          108.28148743245310       -5.08493044986094        1.47938122506130
H          108.94671505439730       -7.12034262877331        2.22140820833060
H          106.43682901628233       -9.35863863916762       -1.00470240035571
H          105.03516923486414       -7.17814890446497       -2.67457450986902
H          105.60923822468304       -5.07646738897667       -1.88637907955285
H          109.53695449620830       -4.44259958634131       -0.76216368306397
H          111.40101138704364       -2.50827715398813       -0.70178244862453
H          111.36294936587507        2.66348209576151        0.54390011048837
H          109.47533623935644        4.54946872885596        0.63111735508286
H          107.62152835503755        0.83062428462061       -0.11038935227336
H          108.11758373110105        5.25595374197865       -1.50863405133971
H          108.07857108474768        8.80688041897333       -1.32332855246487
H          106.19154080076918        9.39155537759037        1.12611182660446
H          104.83802704860507        7.07300187792097        2.76996166653425
H          105.48888815567702        5.01757400057686        1.89103291476865
H          104.20467884171896        4.54957602838912       -0.38133948560583
H          102.33976204284650        2.61649437365056       -0.45542675882947
C          114.33588938578971        0.04024328503401       -0.04499631248118
C          114.96469389748168       -1.21753701664628        0.05263904310592
C          114.33165668644259       -2.47178806376703        0.24076344871824
C          115.29681094528956       -3.44210391046458        0.20244491055194
C          116.54793824296604       -2.80648446266326       -0.01798510624210
N          116.29992381964756       -1.46067863958024       -0.07316498281232
C          117.79705470578584       -3.41831985592436       -0.18808884389481
C          117.81307299579785       -4.89930218765268       -0.22881628029328
C          118.60111614329480       -5.61646871064694        0.67329361752751
C          118.62705829703570       -7.00783719030408        0.65532122628671
O          119.38165855100645       -7.71540519403324        1.53559264767732
C          117.86176468675113       -7.70381107637933       -0.28645508642926
O          117.87060072164471       -9.06042651812386       -0.33387520950511
C          117.07903101822512       -6.97945738616051       -1.18990215209491
O          116.35901262383769       -7.72176049776956       -2.08989697990362
C          117.04303421164568       -5.59251146971408       -1.16578310604074
C          119.01295521903567       -2.74345290429922       -0.32017572055050
C          120.27179914680795       -3.39435714705640       -0.63135475533368
C          121.21639529505862       -2.43026789162466       -0.60555839818335
N          119.20862851637725       -1.40641575169681       -0.15125747756886
C          120.53448954161436       -1.19505894202130       -0.28106506836867
C          121.20735958361223        0.02724537528728       -0.07324383820238
C          120.57893168316758        1.26977047676547        0.14600009613310
C          121.21265630097106        2.50235776191267        0.44331171171799
C          120.24793976403028        3.47201787580941        0.49638129495536
C          118.99557805701913        2.85805166972559        0.22697423094563
N          119.24261007238454        1.52285978938949        0.05081686576348
C          117.74553234299439        3.48312402784214        0.12208953377530
C          117.73247957983608        4.96296028945936        0.21026721105910
C          118.49422759848173        5.72914869135393       -0.67342544421888
C          118.47428998203009        7.11629418664608       -0.59070827495180
O          119.20422813884893        7.86838851825282       -1.44995769162965
C          117.69716062437813        7.74402536076083        0.38434322076424
O          117.70013569146300        9.11239863560498        0.44473283320241
C          116.94017458160793        6.97982517380602        1.26907972462397
O          116.20723805960429        7.66584693944544        2.20155218674427
C          116.95195390726029        5.59366209888975        1.18398731703863
C          116.52774436319315        2.82381208823772       -0.05661847585618
C          115.26474916206435        3.49976237596545       -0.28968773928181
C          114.31991698486146        2.53708218456856       -0.33909869332143
C          115.00625230568527        1.27747024729952       -0.14004245542492
N          116.33327369542626        1.47659408903571       -0.00802186707548
H          113.27481617811368       -2.60907477495624        0.39910326332369
H          115.15527323297628       -4.50300739183647        0.32901950400468
H          117.01265410476393       -0.74836528090225       -0.18955713370199
H          119.18736048638415       -5.08758767989287        1.41629246283009
H          119.86264588851073       -7.12868675390944        2.13387139246850
H          117.27772856097025       -9.34384416526614       -1.04857001962069
H          115.84615820909127       -7.15102131361607       -2.67666704054093
H          116.44136746437648       -5.05515407981836       -1.88945918673793
H          120.39303810592749       -4.44080920024224       -0.86013687055239
H          122.27194582522961       -2.52076214448632       -0.80326148810470
H          122.27019989207160        2.62547086964396        0.60725369877219
H          120.39042280783484        4.51787049520788        0.71376343681339
H          118.52926970998925        0.82414053535487       -0.12745280833413
H          119.08579460762581        5.25524553205007       -1.44609904425402
H          119.05346300772668        8.80489629414330       -1.24035322801260
H          117.10628933484982        9.38128616385839        1.16371753263565
H          115.70624723728159        7.05731096050054        2.76031569906002
H          116.37210975729889        5.00535379101553        1.88539772841285
H          115.14081735637194        4.56265888052252       -0.42005869138120
H          113.26133964814930        2.64464107755209       -0.51109642680645
C          125.23843935136925        0.01076760935985       -0.07243973118363
C          125.86688982670989       -1.25065998870425       -0.05405982221883
C          125.22833600961437       -2.51375942012420        0.03022988986886
C          126.19294570912554       -3.48157094873247       -0.04617067136176
C          127.45094140364918       -2.83574082003070       -0.18378838100448
N          127.20493774508597       -1.48837649358879       -0.16176456636923
C          128.70542392673343       -3.44307125167706       -0.32386169199218
C          128.71779025635868       -4.92244016158851       -0.42351193539388
C          129.42319562898848       -5.68357109740659        0.50978954293493
C          129.43944096557513       -7.07349690326437        0.43637500757279
O          130.11207187495492       -7.82470631398452        1.34625581494835
C          128.74904511478238       -7.72194266792970       -0.59309307379801
O          128.75024232320197       -9.07577270712421       -0.69493838188283
C          128.04961466736114       -6.95299457068929       -1.52730050552884
O          127.40029463399298       -7.64971636176247       -2.51348755421141
C          128.02193721726567       -5.56773882783431       -1.44817298579552
C          129.92756748795418       -2.76835964127187       -0.36684120663956
C          131.20612642538759       -3.41717342508274       -0.59501826794221
C          132.14585572762181       -2.45305834550367       -0.50330269369807
N          130.10860099927618       -1.43288066041375       -0.17875284639902
C          131.43980454493467       -1.21729229743463       -0.23067052692310
C          132.09610598128134        0.00435782525186        0.01017440514172
C          131.47050404157858        1.24389012998656        0.23673903244645
C          132.11378335055244        2.47842281558636        0.51116577470444
C          131.15096833941558        3.44785284173932        0.58529999315645
C          129.89161891154717        2.83422739909466        0.34460393478909
N          130.13319684027601        1.49909063734905        0.16327892583207
C          128.63887755620618        3.45695734849832        0.27276097528798
C          128.62069061370516        4.93402945880415        0.40907945024006
C          129.34607852459169        5.73441572418334       -0.47444337183758
C          129.32240981299506        7.11782569757545       -0.34262153894663
O          130.01773585379476        7.90418141420159       -1.20033057729572
C          128.57796928689223        7.70671853740417        0.68080742992145
O          128.57717133706589        9.07242795371791        0.78886243611134
C          127.85639581665535        6.90803460932351        1.56452662389631
O          127.15361591712032        7.55681755687980        2.54556254327070
C          127.87203157740132        5.52562841969149        1.43082314248806
C          127.42163926027273        2.79961630824411        0.08286924919747
C          126.15515745791441        3.48218626892024       -0.10779870826494
C          125.21447802381188        2.51982802434468       -0.20886428213434
C          125.90603760231755        1.25346892515890       -0.08340316293251
N          127.23215160827627        1.45080049596958        0.06105152002184
H          124.16741278556974       -2.65890618540612        0.14791548758730
H          126.04727690426709       -4.54834733855682        0.00200189756930
H          127.92200773664642       -0.77262469684594       -0.21226257749665
H          129.95036294235777       -5.19185185931663        1.31953227839650
H          130.55442731300084       -7.26788182046964        2.00034558090648
H          128.21926416128673       -9.32304389929446       -1.46918295551200
H          126.94920186373368       -7.04901842059951       -3.12069796685733
H          127.48411743356547       -4.99421269586103       -2.19402306183606
H          131.34404714318049       -4.46449311545771       -0.80965499987130
H          133.21501382840054       -2.54466285729242       -0.60925031224621
H          133.17750653488696        2.60225187587366        0.63427496805274
H          131.29908134443028        4.49497531002872        0.79264277009617
H          129.41565004068792        0.80314641262865       -0.00968460864907
H          129.91203253793492        5.29099781456555       -1.28352507656033
H          129.86851414515962        8.83163178016544       -0.95270216405090
H          128.00926604892877        9.31245370742304        1.53836579520988
H          126.67754410042834        6.92598806114295        3.10139775183292
H          127.31948332712025        4.90970538102278        2.13056768434378
H          126.02619366169890        4.55021682651497       -0.17668267135258
H          124.15556292054532        2.63281076391145       -0.37394052393912
