270
 energy: -517.873197716507 gnorm: 0.000575633978 xtb: 6.5.1 (b24c23e)
Co          41.79524186155998        0.46104643828213       -2.44462223299677
C           38.75940270059625        0.22440698025827       -3.85566648638146
C           39.21139781664785        1.47156986917618       -3.48088730191289
C           38.43759311935300        2.66989292629110       -3.60824269879284
C           39.08512253717520        3.62663040014438       -2.90221874757609
C           40.28207021574555        3.02643938371586       -2.38905736036474
N           40.35734525322662        1.71299725840545       -2.76501848915798
C           41.26089232154213        3.72230259980423       -1.68811825190138
C           40.96277943091906        5.10776830554844       -1.25432516997411
C           39.94017878236702        5.34004891471456       -0.33879748207992
C           39.64636603021665        6.63707761179298        0.07951989547955
C           38.54811547479576        6.81990232444091        1.06171653095364
O           38.34715474831298        8.09962316340967        1.40874868955087
O           37.88611517393738        5.92264331066040        1.51670180754415
C           40.37335946693322        7.71537094222318       -0.42495308589954
C           41.38392326165295        7.48743651880306       -1.34560033930269
C           41.67833356182221        6.19564336984342       -1.75916058716201
C           42.52221556727678        3.18785205818460       -1.47562987521947
C           43.63844485905970        3.92424536026496       -0.96162375029082
C           44.73357186155403        3.14485851882958       -1.13394208290588
N           42.92412724634655        1.93097749672523       -1.87000004440577
C           44.27527755634939        1.90859472582634       -1.68470034507645
C           45.10966600137999        0.80808586202513       -1.91026032609010
C           44.58845946095919       -0.47217820771963       -2.11709019787640
C           45.38185696269929       -1.66036931623289       -2.07079452841424
C           44.51754953256650       -2.70392873605207       -2.05851980778852
C           43.19940670319405       -2.15145212989176       -2.15049883928320
N           43.25984566513452       -0.77991285608154       -2.20071374939621
C           42.04630762718503       -2.91571476401155       -2.26607573158050
C           42.14930341439805       -4.38025936432241       -2.06256132985387
C           42.52550869561279       -4.88102307453490       -0.81418339716094
C           42.62539360794781       -6.24883704592179       -0.60169387379884
C           42.35772711856625       -7.13278304008438       -1.63362336747456
C           41.99152628982256       -6.64408357892651       -2.88858963850695
C           41.72094312939293       -7.62336837501602       -3.97081826050992
O           41.36145523420562       -7.05569433542014       -5.13143013953922
O           41.80709931183612       -8.81797314758045       -3.84328309640047
C           41.88892353290735       -5.27067523545597       -3.10153154859404
C           40.83731709847393       -2.35657267698225       -2.65890724956464
C           39.67095463281334       -3.11149741014597       -3.01517613645482
C           38.79533483741815       -2.24043742822388       -3.57041418807724
C           39.39455836244367       -0.94358244880932       -3.48474458179164
N           40.63513178379235       -1.02286957260528       -2.90833022801345
H           37.80537168503611        0.15313946514881       -4.36458774466327
H           37.50424592469975        2.74080854542309       -4.14367885636812
H           38.80361793632297        4.65689945511797       -2.75557293604186
H           39.36955458583157        4.51213079315125        0.06763504815828
H           37.61787386263113        8.13405945028210        2.04894917662776
H           40.14321682717809        8.72283578808283       -0.10018199228233
H           41.94661061147222        8.32186124936171       -1.74873874882807
H           42.45696648615763        6.02817786261816       -2.49477945685273
H           43.58592858961776        4.91486541837191       -0.54029141830360
H           45.75995574335292        3.36120718571367       -0.88460528359663
H           46.45876008580159       -1.67614861764997       -2.02180784581340
H           44.74155673766676       -3.75770811985592       -2.02105587574983
H           42.72856453326330       -4.18925013434076       -0.00430424828379
H           42.91275364404459       -6.62317102517144        0.37422844551865
H           42.43033174614980       -8.20428423017419       -1.48530132306651
H           41.20318906238878       -7.75872452860905       -5.78220075218649
H           41.62527631829975       -4.89496858341692       -4.08298544887626
H           39.55396720426984       -4.17329755898716       -2.87156498734684
H           37.81464539164123       -2.43523242437451       -3.97445211630070
Co          94.40755922008415        0.20814484914330        0.03174144118993
C           97.37285021352852       -0.00668856096571        1.56312122147964
C           96.94751986760490       -1.09299213548508        0.82440207877922
C           97.73816869722617       -2.26314648249742        0.59226376278683
C           97.03043550989634       -3.05092807208742       -0.25179781953978
C           95.77265350045417       -2.39754843884439       -0.47261211102905
N           95.75980858775982       -1.17278817884323        0.14594736658862
C           94.67088851130777       -2.98832895395801       -1.07762809581384
C           94.78924256443004       -4.33888961625430       -1.67401770535692
C           95.18829186545676       -5.43468890628420       -0.91444118566650
C           95.29722938641486       -6.69663695090821       -1.49779264696120
C           95.73426527045562       -7.82436303434520       -0.63680780852800
O           95.80141911259635       -8.99742157425020       -1.28302959638362
O           96.00947357345274       -7.72105644627358        0.53115896012321
C           95.00182591179193       -6.87088063300209       -2.84966198591829
C           94.59300365623382       -5.78319253814374       -3.60547132821056
C           94.48410513223408       -4.52800813071300       -3.02443810649807
C           93.41890119162576       -2.38608246601588       -1.05191433501206
C           92.19489428866194       -3.06627684038636       -1.35039064319841
C           91.19005492469979       -2.18663242350005       -1.11699801418847
N           93.16241194263560       -1.09644775462785       -0.65778380725999
C           91.80479776478907       -0.95602927956367       -0.72990030261477
C           91.11614749832600        0.25880439217510       -0.65542318973057
C           91.79833256857580        1.47885118904895       -0.56301746945359
C           91.19720122188865        2.74435796852169       -0.84071436017151
C           92.17680615187679        3.67472952014481       -0.72729254335019
C           93.35760551353853        2.98151023659164       -0.30686136539083
N           93.12189562973371        1.62486459833263       -0.27016911957619
C           94.50714534984270        3.59779265193082        0.16361508758732
C           94.62368600623137        5.07448317938188        0.12954260215195
C           93.71396620599107        5.88926719186718        0.80643247397226
C           93.84001088795551        7.27120815254324        0.76844835003467
C           94.87373531233743        7.85579576356215        0.05633537326426
C           95.79425046718146        7.05138865447548       -0.61738883362641
C           96.89192396699099        7.71557679551758       -1.36441994200266
O           97.72355075220884        6.85740798146051       -1.97254492951780
O           97.04253143594192        8.90863427115602       -1.43190288094036
C           95.67027469381475        5.66442293285269       -0.57631798032060
C           95.52776525786066        2.86946096230573        0.76638492572301
C           96.58058007251626        3.45201185790583        1.54575797112913
C           97.32076139928418        2.42827177130930        2.03426047041738
C           96.75201647210115        1.22347412739764        1.50926594463272
N           95.63137380101857        1.50567801936589        0.76821977157198
H           98.29960864686042       -0.09234609252789        2.11817364119025
H           98.72129991347312       -2.42823057077638        1.00343061638722
H           97.31804907981515       -3.99918067769584       -0.67560034021978
H           95.39991190142268       -5.32537420618868        0.14349640726813
H           96.09386853491283       -9.67840033553866       -0.65563850231064
H           95.08989408255914       -7.85163746635652       -3.30107924195685
H           94.35824272974368       -5.91184904282288       -4.65603265477019
H           94.17183095003577       -3.67889285576488       -3.62211997258420
H           92.12346989244823       -4.09469902148583       -1.66549964056196
H           90.12739411980769       -2.33297743974438       -1.22513982642284
H           90.16481294288360        2.88434241602713       -1.11819255575073
H           92.10812458454569        4.73750043915826       -0.89269578536841
H           92.91549719907495        5.43468910753963        1.38194607212943
H           93.12809931464832        7.89135865063852        1.30112319849563
H           94.98534107396688        8.93340646326718        0.01538413985877
H           98.40756124442179        7.36711618390777       -2.43638056085103
H           96.38164077568261        5.04068686560274       -1.10461793913300
H           96.70822516338390        4.50959476782932        1.71167306981272
H           98.19424727323664        2.46784147790504        2.66539039500017
C           46.49659520652637        0.96916758230939       -1.77661082144961
C           47.70529876504740        1.11476759865759       -1.64487628575407
C           49.02377096375668        1.27033395699731       -1.44162003742763
C           50.22393955012057        1.41055379957359       -1.21278791921781
C           51.51630393487800        1.55610489601634       -0.88578602678581
C           52.69180401930337        1.68448504086909       -0.55740349952316
C           53.94724918635848        1.84569702388048       -0.02865001623113
C           55.15301833093559        2.49025828501865       -0.16444352254700
C           62.54888059651460        0.58297221556469       -0.85048993302773
C           63.71411738133612        0.62636092661159       -1.23243098196901
C           65.00439788055407        0.65543129287200       -1.58863077283614
C           66.21056635440009        0.66994012355166       -1.84450729849895
C           67.52703196321616        0.68618363681227       -2.06217739850014
C           68.75152963922254        0.70259294901670       -2.20488569675588
C           70.08615675373149        0.71977299999113       -2.31651416179778
C           71.31063991051089        0.72835806029153       -2.38330737073520
C           80.85461028471993        0.51893328637253       -1.83781444665397
C           82.06882347464442        0.47333012199922       -1.67822926632888
C           83.39827671707178        0.42499726963183       -1.50966678540356
C           84.62016585245433        0.38394709458978       -1.35938708339097
C           85.94661818997145        0.34613958346211       -1.20225944437712
C           87.17046364382220        0.31669520348397       -1.06589960519605
C           88.50373476332373        0.29039425594495       -0.92437859928018
C           89.72347014838276        0.27037159791210       -0.80735291805319
Co          58.11696561661117        0.57418817797009        0.73741583209294
C           54.83096437050315        1.05192330256412        0.77458270999335
C           55.28782052300907       -0.27577464934747        0.64963704363013
C           54.44590287795197       -1.41958173542960        0.58916824732510
C           55.27125628626802       -2.50255897078367        0.54637763581857
C           56.60931056270966       -2.00104220439999        0.52431788427799
N           56.59576453490106       -0.62615195963630        0.65220819137705
C           57.71632197224020       -2.73098145719321        0.11396128377444
C           57.55974816680722       -4.19282916165858       -0.07066549766695
C           57.30252262840197       -5.00269132987302        1.03135397742167
C           57.14969103002267       -6.37956957900270        0.87511974074055
C           56.88040804172776       -7.19163495472467        2.08953427413920
O           56.76199243446610       -8.50300088056361        1.84048700255842
O           56.77299989311157       -6.73710199206163        3.19932225223310
C           57.24509726597241       -6.95372314063223       -0.39222330414997
C           57.48790340921818       -6.14640670311161       -1.49240372508003
C           57.64437264311249       -4.77625844757833       -1.33652907691992
C           58.91560725723805       -2.11724756289555       -0.24376459189470
C           60.00453736880179       -2.75167153674154       -0.91717777656681
C           60.93838003972984       -1.79197759325871       -1.14798416669264
N           59.20562825286808       -0.79117708255369       -0.02951007604385
C           60.44833452692327       -0.59005630553364       -0.55447687200730
C           61.25347607621651        0.54243784427467       -0.32645998361105
C           60.88032247831733        1.51367324818298        0.61320339441489
C           61.78115610464388        2.44277117363200        1.22915437396426
C           61.10929764388775        3.01797770348995        2.25581125877071
C           59.77304944419555        2.49509047410399        2.22293250124984
N           59.66268139397341        1.56406222521109        1.21658046584502
C           58.70794872350832        2.96922060762849        2.97300991694482
C           58.97972094779821        3.88688502860600        4.09934445290748
C           58.48148843721261        5.19207465288770        4.11560066615645
C           58.75794508872361        6.04003898321913        5.17899678750082
C           59.53607735458142        5.59931294204514        6.23641796005375
C           60.05066618331452        4.30201271075612        6.22553739339821
C           60.88995873418894        3.87017418260635        7.37302254004976
O           61.34216784853635        2.61380270162309        7.26264011101946
O           61.15280850248027        4.56641482726738        8.31939267861923
C           59.77608558235050        3.45129056881297        5.15773765366804
C           57.39245835560551        2.70708178888555        2.56171228489430
C           56.21199878531549        3.34854155497319        3.09250486938294
C           55.18627409346325        3.03006105656519        2.28945406352171
C           55.71074427919049        2.15977083543791        1.22315204563647
N           57.08306562980441        1.92754437501597        1.50942663174856
H           53.36824179594102       -1.39188496295100        0.59584226842896
H           54.99972705776348       -3.54347686508903        0.47959447197530
H           57.23101371350344       -4.57210772956047        2.02415488970598
H           56.58796920173324       -8.96256818621004        2.67810482804939
H           57.12406562939694       -8.02346383436029       -0.51220980939528
H           57.55299558429157       -6.58502504718648       -2.48163932630100
H           57.81212608342796       -4.14911929541709       -2.20473068765888
H           60.04892607888507       -3.79510532975546       -1.18315707855960
H           61.89421634526439       -1.88970942649528       -1.63701049758501
H           62.80415682786651        2.59807003499587        0.92610598692678
H           61.46075398655496        3.76192024276043        2.95222238482065
H           57.89707656885697        5.55278335338226        3.27672354230667
H           58.36709248326662        7.05113338091406        5.17592078203147
H           59.76018069530277        6.24901315843153        7.07485802810276
H           61.87796970068187        2.40720887955358        8.04581872017562
H           60.16953576804357        2.44163980399525        5.15373856761244
H           56.19405606752691        3.96055126613925        3.97983650634893
H           54.15302785639224        3.33198174194080        2.33892097650538
Co          76.09738637855338        0.70816617720373       -2.36342396598828
C           72.70932158855801        0.74381270010286       -2.41960179143095
C           73.38958807833532       -0.27281167944657       -3.10007029375263
C           72.74439348986438       -1.28061847364884       -3.88009975610704
C           73.70372491588418       -2.17000708681605       -4.23512001922338
C           74.92575379417708       -1.71655943065296       -3.64083119019986
N           74.73075241373242       -0.50673351757103       -3.01313756407731
C           76.08484966854095       -2.47264274348890       -3.54939866073591
C           76.09373358470276       -3.85339431909638       -4.08354248023547
C           75.17878842771503       -4.79736246085509       -3.62535606997432
C           75.19513827850282       -6.09874976908877       -4.12516005599252
C           74.19563828564004       -7.05964560871542       -3.59390775031195
O           74.30158442283181       -8.28850325120145       -4.11974568213666
O           73.35918733991423       -6.78543085814248       -2.77197254452394
C           76.13017654473524       -6.46431435372742       -5.09339830121550
C           77.04223291218922       -5.52628449624627       -5.55131515084529
C           77.02826913623306       -4.23227631309764       -5.05065661142197
C           77.23267339264174       -1.98753553710454       -2.93369254958873
C           78.40921006027706       -2.76355231588739       -2.68397969117303
C           79.35229026975409       -1.90566379498602       -2.22215964296990
N           77.43627366550169       -0.67874851645299       -2.57048993180765
C           78.74981120800555       -0.61080779389856       -2.19790154127096
C           79.46660735283753        0.57614644820534       -2.01811961101898
C           78.83502548045685        1.82449897579184       -2.05134311892597
C           79.52983343940926        3.07143787448891       -2.00925589588718
C           78.58659952651938        4.03785118344441       -1.88779218591757
C           77.32065257400819        3.37156226585857       -1.82623857307373
N           77.48431916976098        2.01728268994690       -2.00537713306404
C           76.12880233027687        3.97950155620664       -1.45606496462837
C           76.13341137227332        5.41082041886342       -1.07648767709166
C           75.32206366342864        6.32369110381724       -1.75432112902936
C           75.31984673590111        7.66571780514322       -1.40063884337337
C           76.12164529310738        8.11201806890733       -0.36339979382189
C           76.93314486170448        7.20867461580828        0.32466661580576
C           77.77385830371617        7.72492439894133        1.43441922124410
O           78.52120270884151        6.78153380390302        2.02498572179828
O           77.79973670178767        8.87608063030122        1.78730963278950
C           76.93921442812788        5.86225842400052       -0.03314036589152
C           74.93420617896213        3.27509326617262       -1.39088328268159
C           73.70482653126813        3.80644653722776       -0.88516541819000
C           72.74786986600257        2.87785178018829       -1.12982985099348
C           73.39506040465515        1.78843427458498       -1.78997450240085
N           74.73947070076571        2.00844144971165       -1.88796500745479
H           71.69271648818794       -1.29163719425264       -4.11706339533627
H           73.60086389642235       -3.06002392239292       -4.83416953360991
H           74.45553228904016       -4.53646472946812       -2.86048467035993
H           73.61831770776647       -8.85327287508635       -3.72338673289214
H           76.14022982474080       -7.47550673773328       -5.48173234769444
H           77.77062294467194       -5.80317529980001       -6.30503779962599
H           77.73759253586252       -3.50060077719412       -5.42099833723131
H           78.49172036250388       -3.82697200422596       -2.83944169215176
H           80.37129170237320       -2.11261610756723       -1.93741535266141
H           80.60114301063068        3.17797244624865       -2.06600724040355
H           78.72650051970695        5.10518040605060       -1.83398525454610
H           74.70136313106916        5.97757184551969       -2.57320740580475
H           74.68885851746123        8.36359436488897       -1.93908788715721
H           76.13051614696562        9.15646277726739       -0.07280479879540
H           79.03671502188676        7.19603950857702        2.73585084747564
H           77.55784172273228        5.16050579067323        0.51360731012128
H           73.59910860941616        4.76422455976272       -0.40211921858217
H           71.69407809506249        2.92041410964130       -0.90638005511806
