358
 energy: -621.262090643863 gnorm: 0.000339793822 xtb: 6.5.1 (b24c23e)
C           59.98304600590159       -0.03871207584404        0.00194027983106
C           60.60008907205885       -1.28260723777173       -0.03853420274948
C           59.97866551770578       -2.56390577080258       -0.07718154265976
C           60.96534409179226       -3.50883001144676       -0.10989528695748
C           62.22045517715764       -2.83500979586142       -0.09197222375621
N           61.94887281617080       -1.49803793038140       -0.04905049063547
C           63.48588081010302       -3.40992356801542       -0.11283437386535
C           64.70971939649341       -2.75653750896663       -0.09359079611863
C           65.98381036514598       -3.45305225222368       -0.11628606099741
C           66.93942558377542       -2.50112945758198       -0.08589031363421
N           64.91146103265653       -1.41125715128849       -0.05093912292081
C           66.24531222868211       -1.22647568075579       -0.04538695921029
C           66.90802060029397        0.01826233966390       -0.00694170557405
C           66.26503215914109        1.27021428071348        0.02993645161229
C           66.88090769482693        2.55032682477145        0.06696065965471
C           65.89027708356824        3.49304326633869        0.09520518490145
C           64.63952097177028        2.81488506809273        0.07650714478253
N           64.91854998602800        1.47536404528871        0.03681179692674
C           63.37530653239818        3.39086270756781        0.09574141443929
C           62.15053840942110        2.73513855914573        0.07933617322015
C           60.86997498786791        3.42523838926876        0.10366884932539
C           59.92058458421116        2.46837605474386        0.07807195816719
C           60.62200554202259        1.19505561751171        0.03777078438509
N           61.96146787976014        1.39529785210992        0.03984089301953
H           58.89819542473291       -0.03967109365673        0.00511075779085
H           58.91245905969011       -2.72598832732635       -0.07926562684721
H           60.84822653249383       -4.58042674475434       -0.14341418614085
H           62.64755953493282       -0.76285009995741       -0.02770817970028
H           63.51027752292345       -4.49446849687063       -0.14734955729627
H           66.09770990640608       -4.52522095983943       -0.15058732559703
H           68.01139481837667       -2.61913141626724       -0.08994120131556
H           67.94637243879944        2.71592540559307        0.07094119349840
H           66.00407111274811        4.56492747896513        0.12644563442679
H           64.22234910575774        0.73746285407919        0.01587740436181
H           63.35230470583404        4.47543150938083        0.12784916140054
H           60.75023304594689        4.49700093603574        0.13605855538840
H           58.84736705055260        2.57875933015754        0.08466442198442
C          175.70628824752279        0.03409125772279       -0.01762297015157
C          175.08978737861577        1.26848122774059       -0.17839923344981
C          175.71205450150373        2.53865403058897       -0.34828853836142
C          174.72603638471483        3.47729824945932       -0.46744520313481
C          173.47051115775261        2.81052469197339       -0.37431461072596
N          173.74117825330285        1.48391264221167       -0.20110128541674
C          172.20534298751929        3.38216034526750       -0.44383968377367
C          170.98146010561510        2.73472786355689       -0.35445809958655
C          169.70736591360392        3.42627034357321       -0.44033338717963
C          168.75180419996596        2.48212725130406       -0.31479723742351
N          170.77978728971360        1.40007917775914       -0.18009025350160
C          169.44596937369965        1.21720221787305       -0.15256994229146
C          168.78306386288727       -0.01764065723787        0.00768569111153
C          169.42543044895405       -1.26017626416822        0.16784500546421
C          168.80873108973881       -2.52951369903296        0.33480619419683
C          169.79872422205707       -3.46536180126215        0.45711016869782
C          171.04990923098376       -2.79365780548262        0.36787773009913
N          170.77176238060210       -1.46473988730773        0.19346881804099
C          172.31388421675868       -3.36569864684284        0.44197258604644
C          173.53871359480266       -2.71582552772795        0.35383340364673
C          174.81928129231261       -3.40072924355062        0.44152625426106
C          175.76862829491071       -2.45220428188759        0.31267997675757
C          175.06716704282988       -1.18909599784337        0.14684457342718
N          173.72772616729452       -1.38708923841618        0.17702193385652
H          176.79113957574560        0.03412248215058       -0.02169142520286
H          176.77837108467432        2.69798409298170       -0.37389879531436
H          174.84390547672768        4.54011464374497       -0.60776052373181
H          173.04169250160180        0.75584389114119       -0.10236575150164
H          172.18119939569684        4.45808946857730       -0.58457174241341
H          169.59339682321610        4.49007095713410       -0.57830227214650
H          167.67983639707620        2.59956470319408       -0.32684486245338
H          167.74315942908774       -2.69292904380196        0.35721539828092
H          169.68418728062400       -4.52846771737891        0.59692352935476
H          171.46871205293789       -0.73358744244840        0.09703407365393
H          172.33662700988995       -4.44138897844237        0.58412587859362
H          174.93905556610312       -4.46366282927803        0.58256093328020
H          176.84184978151140       -2.56209790791616        0.32428127483528
C           69.53517432113527        0.02941132231726       -0.00242795843106
C           68.31256552295453        0.02374345989193       -0.00520628125832
C           70.88427996480956        0.03220898040153        0.00144275093650
C           72.10705811915608        0.03313584604155        0.00526356534463
C           83.13831167226887        0.01617179858342       -0.01312549377476
C           81.91516153639299        0.01798850277043       -0.00971150762309
C           84.48713402453777        0.01806762136375       -0.01451946335948
C           85.71027332707125        0.01713122470944       -0.01433363081207
C           96.74941054100286        0.01584857731270        0.02004089177671
C           95.52615446645078        0.01709900988759        0.02280970779864
C           98.09835517121454        0.01806139407876        0.01534134792852
C           99.32157283418337        0.01670818739472        0.01018265854365
C          110.36413014615371        0.00134750157559       -0.00442419054352
C          109.14089950334028        0.00196994221164       -0.01100912407661
C          111.71310180230499        0.00296472787765        0.00136453306815
C          112.93635038661021        0.00261581580962        0.00694034543173
C          123.97848079381785       -0.00519873257515       -0.01307940040820
C          122.75521243140832       -0.00639811813265       -0.01408434149931
C          125.32746803448680       -0.00108638819850       -0.01071859492844
C          126.55070670935471       -0.00038895102449       -0.00630401933183
C          137.59394598208078       -0.00728825009539       -0.00518312033665
C          136.37073888711345       -0.00580855645130        0.00093331623563
C          138.94286686528838       -0.00487369606829       -0.01085334804002
C          140.16608549064017       -0.00608553920477       -0.01649259417356
C          151.20361367803480       -0.01989884804045        0.01833001108605
C          149.98046527843462       -0.01931571162715        0.01895874478942
C          152.55242957380636       -0.01743711868724        0.01712180225892
C          153.77556483406127       -0.01789936799300        0.01367284869006
C          164.80680182780372       -0.03159734582495        0.00928066511147
C          163.58407794367085       -0.03117013159755        0.00764281145517
C          166.15590780474423       -0.02855419722885        0.00917701692002
C          167.37849360881842       -0.02236050318889        0.00910461543028
C           73.51065902288680        0.03508250874152        0.00790659439440
C           74.15233004146459        1.28899470547533        0.02160672352317
C           73.54091667788128        2.57028495853358        0.03603627632620
C           74.53628264658464        3.50979922931127        0.04669037935120
C           75.78333497062118        2.82677480066737        0.03842270200416
N           75.49976356981182        1.48866387433832        0.02369344224787
C           77.04962409034533        3.40280124390172        0.04271836791541
C           78.28023495322940        2.76449633338782        0.03167904895990
C           79.54503142583667        3.47818907111888        0.03437687690393
C           80.51357016772641        2.53878122573628        0.01962723696889
N           78.50048468496330        1.42128974945070        0.01607353701566
C           79.83666267240889        1.25504598342109        0.00889718722707
C           80.51178075738618        0.01613991939212       -0.00478419224874
C           79.86966331205466       -1.23781417363618       -0.01156384514679
C           80.48075612992997       -2.51943997548312       -0.02168255102482
C           79.48525342690208       -3.45867480020828       -0.02386577169207
C           78.23821406062689       -2.77540791027991       -0.01576756242801
N           78.52226044286495       -1.43708602754015       -0.00832724673048
C           76.97226004155087       -3.35149688924014       -0.01694397927911
C           75.74129249411196       -2.71324974867570       -0.01209527822391
C           74.47644386650862       -3.42686944577790       -0.01776266812736
C           73.50796812637012       -2.48732982694837       -0.01230347510492
C           74.18503168971333       -1.20373641253215       -0.00245586560893
N           75.52153881533658       -1.37026520764189       -0.00270344116896
H           72.47613249326561        2.74008627125566        0.03810949357913
H           74.42643194173783        4.58247976534583        0.05884488358609
H           76.18933999892494        0.74423940991137        0.01508119062161
H           77.06560941461241        4.48826631430815        0.05508905228073
H           79.64463868273688        4.55228485720675        0.04587723616317
H           81.58392323011519        2.67096865377544        0.01642269153287
H           81.54544684735339       -2.68954142155948       -0.02639204125596
H           79.59470874906185       -4.53142958699756       -0.03065782108065
H           77.83269977773014       -0.69262934424723       -0.00131242645518
H           76.95625303433572       -4.43700744974600       -0.02365858512790
H           74.37664376365854       -4.50096848778987       -0.02530419993358
H           72.43761305744981       -2.61930483957145       -0.01412804241139
C           87.11360586691190        0.02090034781484       -0.01044360057209
C           87.75442655010907        1.27564893145453       -0.01511085495810
C           87.14278879814881        2.55682860898725       -0.02624162242982
C           88.13803570980579        3.49651308285633       -0.02681258304149
C           89.38531661875857        2.81380596993020       -0.01608776612968
N           89.10180901770349        1.47552383030160       -0.00952592789003
C           90.65111238640073        3.39092189677468       -0.01278870018125
C           91.88341814203564        2.75561452188673       -0.00329117709291
C           93.14613749995429        3.47309491337179       -0.00195091642378
C           94.11761030866239        2.53659872453963        0.00672224001871
N           92.10785017931694        1.41312819378585        0.00510900073647
C           93.44468023899208        1.25084381033985        0.01121307552459
C           94.12269963518931        0.01345265600394        0.02106177419811
C           93.48152045616607       -1.24118173459357        0.02851628575473
C           94.09299177242067       -2.52248172051766        0.04177317612618
C           93.09768022061692       -3.46203097547859        0.04513952816256
C           91.85040379386612       -2.77926128241643        0.03357061555343
N           92.13412131786136       -1.44093622059089        0.02419036910507
C           90.58479714979660       -3.35655523654603        0.03085791046724
C           89.35235630944021       -2.72134829291627        0.01858472905134
C           88.08959719341897       -3.43871321195464        0.01561063963665
C           87.11825792694070       -2.50207941132532        0.00372504027241
C           87.79137919684133       -1.21648637351797       -0.00030539960441
N           89.12823586348512       -1.37895448711043        0.00830980708186
H           86.07803463508368        2.72653374060178       -0.03301209903915
H           88.02788850997052        4.56919747562741       -0.03409461231229
H           89.79113527112230        0.73083016064229       -0.00131988292272
H           90.66534606702602        4.47650519754555       -0.01885209415622
H           93.24246741366942        4.54754012164561       -0.00720439474139
H           95.18757340737751        2.67192346045807        0.01033212767133
H           95.15771318396155       -2.69233788825843        0.04808331056681
H           93.20758680406557       -4.53472228917395        0.05462895002004
H           91.44490375631602       -0.69613639480006        0.01515749532339
H           90.57059800383053       -4.44212001841240        0.03907583270586
H           87.99303824979212       -4.51312802337305        0.02181278489560
H           86.04828550663284       -2.63730432547534       -0.00203834402191
C          100.72500208033331        0.01844819314008        0.00371697459664
C          101.36831119132800        1.27182657272694       -0.01662287254542
C          100.75948972261416        2.55431922047369       -0.03225616904230
C          101.75677685538344        3.49160625617661       -0.05160980686729
C          103.00266014271678        2.80615016358527       -0.04811509613435
N          102.71617219328182        1.46865217004009       -0.02653072137517
C          104.26940994613969        3.38098192193121       -0.06303101618941
C          105.50109385663707        2.74430409250378       -0.05679103803368
C          106.76458503257858        3.46030687185914       -0.07049047059435
C          107.73510817283137        2.52288112301632       -0.05538320276992
N          105.72415658302239        1.40178546834398       -0.03523087978090
C          107.06086376002564        1.23803481429290       -0.03352054289887
C          107.73743131817756       -0.00009316347705       -0.01460403428759
C          107.09413401471788       -1.25355922985172        0.00025528232891
C          107.70290332903441       -2.53610002221726        0.01404373194838
C          106.70554901312862       -3.47345788883237        0.02426954693318
C          105.45967043772565       -2.78801542546399        0.01754030205885
N          105.74625720264348       -1.45041575014801        0.00255479361780
C          104.19292106633992       -3.36290334922801        0.02704872305801
C          102.96119803148167       -2.72622568906136        0.02496391662268
C          101.69772625003924       -3.44221546443913        0.03962135673376
C          100.72721515412240       -2.50465848007243        0.03408625597158
C          101.40146349458199       -1.21979301637701        0.01559471917256
N          102.73817122026665       -1.38361737563996        0.01063628044425
H           99.69510415641159        2.72640836155716       -0.02908562993170
H          101.64910043771609        4.56445957453851       -0.06687670830082
H          103.40370982138839        0.72227235768750       -0.01931313065065
H          104.28511200431474        4.46643531663932       -0.08032527136931
H          106.86216941935480        4.53449278665494       -0.08879156930067
H          108.80520932849674        2.65712367811120       -0.05872815752263
H          108.76729241596870       -2.70819231923345        0.01559579892151
H          106.81318240087032       -4.54636112344194        0.03569434549962
H          105.05872581006989       -0.70403448712415       -0.00545128282697
H          104.17720762855657       -4.44842936378791        0.03907979982246
H          101.60011190250148       -4.51647531814923        0.05267939385240
H           99.65712882263485       -2.63886851881721        0.04134020749497
C          114.33982755288896        0.00519325768550        0.00903478407662
C          114.98243362358441        1.25902600708223       -0.00569737547660
C          114.37275778076388        2.54116325192316       -0.01753967353038
C          115.36942235401438        3.47923308475615       -0.03005842718535
C          116.61576161300906        2.79463667988504       -0.02663208327608
N          116.33015577699807        1.45682588827636       -0.01112825009419
C          117.88219614963222        3.37020268537605       -0.03856707935162
C          119.11415490885145        2.73400305987894       -0.03723813552844
C          120.37732061250577        3.45054949367755       -0.05191235561963
C          121.34822312668348        2.51343020078562       -0.04473038274392
N          119.33775581865035        1.39148204353137       -0.02222574810227
C          120.67453164587636        1.22825396256617       -0.02596338810897
C          121.35172419128790       -0.00960525565811       -0.01315165323896
C          120.70915028557114       -1.26342855405863        0.00310944106388
C          121.31878489174132       -2.54558509330407        0.01478172710548
C          120.32209988453589       -3.48360429338057        0.02954052939684
C          119.07576997972519       -2.79897691693628        0.02753012224211
N          119.36141545308864       -1.46118690188237        0.01089633131473
C          117.80932840007902       -3.37453159075404        0.04079842399507
C          116.57733993126848       -2.73837081896216        0.03881567137770
C          115.31414951298764       -3.45491082685471        0.05311139563353
C          114.34323932320183       -2.51781524714339        0.04354603267422
C          115.01694564347251       -1.23265945134939        0.02404435930036
N          116.35372782411262       -1.39588154232510        0.02216140538734
H          113.30825001361580        2.71251295123940       -0.01616535683695
H          115.26097914114023        4.55206320058497       -0.04089597139975
H          117.01840743529986        0.71109792456156       -0.00548075015134
H          117.89742637856337        4.45572932645046       -0.05099195088575
H          120.47446002760276        4.52484191873305       -0.06579813600337
H          122.41825465501660        2.64808295892064       -0.05150159383782
H          122.38328576603607       -2.71694910871640        0.01186009176729
H          120.43050600741800       -4.55643359217999        0.04082988331024
H          118.67321125658077       -0.71540808195123        0.00575613818633
H          117.79411299986951       -4.46004909746516        0.05407344417816
H          115.21700298817046       -4.52918592354135        0.06817694483704
H          113.27319469472999       -2.65242436832584        0.04927695594218
C          127.95417464969550        0.00321780042115       -0.00040297217809
C          128.59645124592151        1.25723649556124       -0.01427881273839
C          127.98677838583298        2.53931343856778       -0.03161493409486
C          128.98346613003213        3.47741109682690       -0.03894619332265
C          130.22984264676819        2.79293186358068       -0.02690741865220
N          129.94419421599497        1.45513155981134       -0.01214889328679
C          131.49614347838073        3.36887913070925       -0.03067460249663
C          132.72845641367635        2.73336664902468       -0.02258664251624
C          133.99127273470228        3.45065305627984       -0.03139548442576
C          134.96269539572691        2.51406745529074       -0.02256318355769
N          132.95276943798282        1.39101374782840       -0.00762841159758
C          134.28965865390649        1.22852768860868       -0.00736443005053
C          134.96731684973020       -0.00901470304406        0.00675705890818
C          134.32512398036383       -1.26298316016943        0.02656324794531
C          134.93485234037260       -2.54498085096823        0.04588400272058
C          133.93817486550753       -3.48299899038273        0.06203984689149
C          132.69179983367172       -2.79850572295179        0.05232421775072
N          132.97737956769669       -1.46081913599047        0.03132044565934
C          131.42544207013336       -3.37435517240022        0.06059284046380
C          130.19319844921500       -2.73886432366442        0.04811737626484
C          128.93040920491862       -3.45621973653248        0.05534770383892
C          127.95895950981414       -2.51981727740746        0.03714364442910
C          128.63192726768281       -1.23424727197331        0.01968746839424
N          129.96879576375025       -1.39657121688638        0.02657272602376
H          126.92227885216792        2.71062578206504       -0.03729235381445
H          128.87509370795615        4.55022748252354       -0.05181530275249
H          130.63209095475804        0.70911868602057       -0.00099733616192
H          131.51098569024325        4.45441848738726       -0.04281225730558
H          134.08784308073496        4.52502197357202       -0.04315392764738
H          136.03267769927342        2.64930232526116       -0.02514167439478
H          135.99936168244852       -2.71633011732094        0.04741527134602
H          134.04660778496361       -4.55575260776675        0.07888414161174
H          132.28946752044661       -0.71482095198349        0.02036716769948
H          131.41057989202355       -4.45982535761712        0.07770221503019
H          128.83391167785365       -4.53053150824651        0.07184823482935
H          126.88899706369250       -2.65519417261509        0.03561074151709
C          141.56954084641436       -0.00412483748003       -0.01804546967342
C          142.21233391300899        1.24932108107709       -0.04708092363257
C          141.60248959981922        2.53101080506387       -0.08144312361819
C          142.59898999659865        3.46907356171176       -0.10238322437847
C          143.84537666305809        2.78495908510737       -0.08062288430491
N          143.55999023989614        1.44735521578513       -0.04804428363732
C          145.11180541824433        3.36039649579991       -0.08890945382455
C          146.34314063836626        2.72341977622134       -0.06573345574399
C          147.60719213694142        3.43838655054331       -0.07585993028435
C          148.57678285003908        2.50033485346029       -0.04689208905918
N          146.56476957180854        1.38096566103122       -0.03096898945738
C          147.90127434917923        1.21625366909066       -0.01916915290738
C          148.57713521404847       -0.02178234781286        0.01500153173962
C          147.93470103631364       -1.27535032255574        0.04303945029070
C          148.54470573526808       -2.55690253936683        0.07790442978338
C          147.54829728260151       -3.49522792110372        0.09300165911591
C          146.30190318408484       -2.81127297197151        0.06790268073531
N          146.58708392983471       -1.47364061596716        0.03886019978836
C          145.03532150977841       -3.38663759116146        0.07137740515210
C          143.80411757909232       -2.74950474504691        0.04928396282340
C          142.54013111769260       -3.46465762077930        0.05807888948440
C          141.57037548674077       -2.52664047055380        0.03463776897156
C          142.24562529339383       -1.24231115711131        0.01049770017251
N          143.58214449934019       -1.40689520508024        0.01950451450720
H          140.53796632914359        2.70205343396918       -0.08938233684893
H          142.49046993698201        4.54158710747347       -0.13022392388124
H          144.24852483129280        0.70218250421750       -0.02675150984000
H          145.12767574485616        4.44562074288672       -0.11622886799148
H          147.70580332162081        4.51232297509128       -0.10164125582692
H          149.64699877403572        2.63365906728887       -0.04350246502854
H          149.60923884377419       -2.72773306822516        0.08964189289488
H          147.65702490158765       -4.56776450355043        0.11918942596611
H          145.89844671810579       -0.72862702613475        0.01597176327634
H          145.01937593100570       -4.47194408934964        0.09524028947017
H          142.44178634438686       -4.53871084372847        0.07975857932436
H          140.50018260715979       -2.66014386372004        0.03251138419001
C          155.17893047987764       -0.01564036983223        0.00931291535957
C          155.82070693746931        1.23655882438583       -0.06030937252526
C          155.20948797658184        2.51628854933119       -0.12957184681686
C          156.20491471233618        3.45394794074180       -0.18551867836845
C          157.45203530352512        2.77160717747712       -0.15144574663623
N          157.16810135984193        1.43539526154319       -0.07567838838922
C          158.71790022579191        3.34674466741355       -0.18766703698451
C          159.94904042121956        2.70969599999651       -0.15362026616468
C          161.21367646868623        3.42247910559767       -0.19603977544222
C          162.18245668400630        2.48478906870978       -0.14206571688001
N          160.16922057014347        1.36900456931877       -0.07624526700263
C          161.50579741163077        1.20314084918006       -0.06718289628208
C          162.18047538660429       -0.03333932196517        0.00623379276006
C          161.53907600512656       -1.28541057387223        0.07834834689674
C          162.15065692002489       -2.56458724968663        0.15183679021542
C          161.15540666665618       -3.50296708219118        0.20167461428369
C          159.90827552261095       -2.82129999093342        0.16034563779094
N          160.19166894849283       -1.48511681710732        0.08659466124057
C          158.64209416660739       -3.39686725398291        0.18888301206891
C          157.41133462113163       -2.75980528112426        0.15280848238673
C          156.14674507726761       -3.47285077430355        0.19076087920755
C          155.17791618996478       -2.53491166628774        0.14175421811957
C          155.85446051978838       -1.25274972992109        0.07347436793855
N          157.19068724507028       -1.41847314911441        0.08132499759118
H          154.14478367778196        2.68629558630845       -0.13554450437537
H          156.09537828233411        4.52506151841961       -0.24512361606079
H          157.85763960717657        0.69191064614620       -0.03651838398366
H          158.73370605731350        4.43051817354702       -0.24952407981576
H          161.31311985921673        4.49482934783187       -0.25828931203743
H          163.25277326564600        2.61684760797039       -0.15025950137586
H          163.21544887492948       -2.73390221362504        0.16400426695426
H          161.26539041189210       -4.57400974674430        0.26186976399939
H          159.50210669874903       -0.74191290089123        0.04283781640465
H          158.62633935804203       -4.48081265681239        0.24769010874975
H          156.04748664611958       -4.54553928333442        0.24751275446148
H          154.10759156979464       -2.66714335782419        0.14921267892294
