252
 energy: -480.409712115451 gnorm: 0.000435913930 xtb: 6.5.1 (b24c23e)
Co          51.49778433483871        0.02615316848680       -0.47518320517181
C           48.18065702793923       -0.22893082102723        0.04149533372367
C           48.70944460841382        1.01954754559318       -0.21259334547893
C           47.93410565481180        2.21672876420042       -0.33057000122358
C           48.81340784418716        3.24169538403884       -0.42895182284723
C           50.12616529988047        2.67148223250788       -0.33493188886477
N           50.04963984560784        1.30284202628978       -0.28258473564290
C           51.29163504426555        3.40382325591647       -0.14881431074292
C           51.21451460832491        4.87794414319861       -0.03809877314522
C           50.41856826158907        5.47960946391976        0.93281045464557
C           50.35140014826489        6.86869397854742        1.03117971403457
C           49.48319727179759        7.44907531579755        2.08665358730173
O           49.49685253635735        8.78944992807175        2.11464770714080
O           48.81965697961104        6.79969309200608        2.85372470638101
C           51.08379632866856        7.66846414757231        0.15406030518767
C           51.87895713262001        7.07212801779386       -0.81211182159876
C           51.94698498928020        5.68964554060149       -0.90839784325537
C           52.53005722442609        2.78802085472599       -0.02925130410773
C           53.74408058494732        3.46882730870423        0.30598120785538
C           54.74701452015162        2.56686707711929        0.17374463203835
N           52.78486155847565        1.46535123880216       -0.30385264080919
C           54.14540322200910        1.34121911729062       -0.24654287026238
C           54.86665962477835        0.24905499194529       -0.73750341363633
C           54.22619364329991       -0.91094209532257       -1.18544234579131
C           54.90062838228827       -2.00773284168879       -1.80400875440777
C           53.99060721882910       -3.00295539566835       -1.93512110810530
C           52.76781737016121       -2.52047543280892       -1.36610064015985
N           52.90879330219502       -1.20641917479133       -0.97905693295762
C           51.66273071948029       -3.31270654215598       -1.09469743801121
C           51.71902068679420       -4.76286393368787       -1.38862573676396
C           52.70488506576750       -5.56857826187390       -0.81392294555193
C           52.75488552062589       -6.92823686898546       -1.08762198607225
C           51.82370298636518       -7.50041631088763       -1.93803296140757
C           50.83214147043857       -6.70651306574087       -2.51664801483191
C           49.85077889727055       -7.35762422743888       -3.42032296333375
O           48.92978845878691       -6.51476025217011       -3.90998722089959
O           49.85846334301738       -8.52898645944211       -3.70054489277054
C           50.78024859992823       -5.34193644735540       -2.24032078079745
C           50.50711645002247       -2.78723455033048       -0.52738171800515
C           49.37823521067536       -3.56802520323081       -0.11302130441669
C           48.40362762519572       -2.69432590279292        0.23422904249065
C           48.93633167861591       -1.38172319534092        0.02737699456941
N           50.24748619370833       -1.45125436562683       -0.37484402253793
H           47.11651205669246       -0.31093217616364        0.22843754704021
H           46.85629267916598        2.24862263892008       -0.33733552701568
H           48.60435133847739        4.29283012210835       -0.54377461294868
H           49.85606928067418        4.87487643628913        1.63569282341990
H           48.90817417922613        9.08895285633691        2.82652163895885
H           51.02861493006250        8.74756864954395        0.23083680580141
H           52.44990074541771        7.68751434146342       -1.49819257567429
H           52.56118734848847        5.22993718159168       -1.67463899374353
H           53.80944640897944        4.50133282184732        0.60850037410565
H           55.80427659893736        2.71118356543596        0.32538443569173
H           55.93867477025329       -2.00535698652961       -2.09332571679477
H           54.12781428998648       -3.98040096856903       -2.36788653290960
H           53.42492692681393       -5.12638002376829       -0.13461603301241
H           53.52386056943811       -7.54117640948879       -0.63162275723903
H           51.84869056275164       -8.56067085671326       -2.16298650882733
H           48.33024036535434       -7.01533594067022       -4.48688232215481
H           50.01777961408128       -4.72534820748510       -2.70145888671941
H           49.34950713597424       -4.64542843694996       -0.09272478614757
H           47.40438609725495       -2.90032088639997        0.58333877211975
Co          83.82638820290101        0.19688131850232       -0.36749401149978
C           87.18194685275863        0.04375373245380       -0.15036566880497
C           86.50647893036566       -1.03633872657867       -0.67868195098784
C           87.13738940469241       -2.21688980156294       -1.18603347461550
C           86.15289237147768       -3.12025738083175       -1.40597861823086
C           84.92252586933641       -2.49641063724205       -1.01334926916839
N           85.14358749972492       -1.19384359478010       -0.64707139812780
C           83.70969535995761       -3.15934516693438       -0.87012438168490
C           83.65523793666586       -4.62127724572689       -1.09328131482907
C           84.47929689362006       -5.48052577659726       -0.37118537544436
C           84.43036492135938       -6.85671040347160       -0.58840025730360
C           85.33885407873564       -7.71877202665252        0.20932336164447
O           85.22094240285831       -9.02479489445158       -0.07044818780435
O           86.11737168568330       -7.30815245626503        1.03116671387664
C           83.55135436288064       -7.38487545022149       -1.53382942901893
C           82.72857102517533       -6.53212927799899       -2.25302778960365
C           82.77757961403910       -5.16248225739376       -2.03647663915414
C           82.54871694361452       -2.48642668817303       -0.51508822353192
C           81.28720174012010       -3.11529311857628       -0.26409936736765
C           80.36863892615335       -2.12274963632011       -0.16889508899328
N           82.41139108668133       -1.11794293782755       -0.49059485488264
C           81.06962173223927       -0.89287568092708       -0.35753326022940
C           80.44695165165294        0.34415052161426       -0.55434984235930
C           81.19083438895029        1.52208030985357       -0.67823385995860
C           80.62329011767125        2.80478998609039       -0.94672301245203
C           81.61205573856977        3.71521571530186       -0.77142833029039
C           82.78158713872013        2.98405643625185       -0.38678332307459
N           82.52669912885786        1.63207559777515       -0.41073994831482
C           83.95378168476326        3.56082378358924        0.08091607730283
C           84.01411445273808        5.02809168513928        0.26591346119827
C           83.09791485698584        5.67784057927862        1.09659562167374
C           83.15727983455952        7.05278826677402        1.27586545713147
C           84.12940678715907        7.79668593092235        0.62824192622937
C           85.04977460574716        7.15958612839518       -0.20556515371393
C           86.07800877007108        7.99095166220553       -0.88068832045069
O           86.91984186594649        7.28444707062312       -1.64898187066870
O           86.16976868273598        9.18590813397149       -0.76260669997527
C           84.99116117427728        5.77934080919350       -0.38485361535127
C           85.07560207813614        2.79604993544858        0.37860169173306
C           86.29762125848532        3.31618132308892        0.91962328071639
C           87.21167743690751        2.31918204180115        0.85172963750332
C           86.54497298568479        1.18848673673040        0.28059183451771
N           85.21950652792579        1.47033303219217        0.06238537513808
H           88.26169446847943       -0.00710646109867       -0.07593687213532
H           88.19922100356293       -2.32415074950768       -1.34013779482649
H           86.23953496219735       -4.12286160095048       -1.79220992664878
H           85.15702360613589       -5.09029394983610        0.38018488791538
H           85.84473565552898       -9.51695817370383        0.48770807581408
H           83.51600381921918       -8.45434407658281       -1.70231004786038
H           82.04518572472537       -6.93534289889281       -2.99180607357228
H           82.14282239530364       -4.50031594244075       -2.61477850210466
H           81.13489999110702       -4.17831621119997       -0.17092350357871
H           79.30907848811020       -2.20335356195190        0.01072385723529
H           79.59744971704873        2.97423841345079       -1.22976027682131
H           81.56362930382376        4.78546412422326       -0.88978435092962
H           82.34627105285969        5.09566685891126        1.61788972087649
H           82.44223485818256        7.54222536423430        1.92721510542349
H           84.19063986977945        8.87127229413387        0.75811972357725
H           87.55722465684985        7.89661736699471       -2.05125647384374
H           85.69697502913694        5.28973586554154       -1.04534520481354
H           86.42719970778039        4.31776997414083        1.29652926818242
H           88.24883547458133        2.33260205795367        1.14652247654842
C           56.26624473090142        0.33371214080396       -0.82331657362885
C           57.47900692768376        0.41183891286778       -0.90451782675557
C           67.04313275866832        0.57726881843169       -1.07489794903162
C           68.26119261880966        0.58347171257435       -1.06806302640123
C           77.83243429326085        0.44572325971680       -0.74443713858132
C           79.04596153790671        0.40057407708059       -0.64759352268539
Co          62.25777995152888        0.58619588161581       -1.15573257636742
C           58.87708651596125        0.48926901192450       -1.00720477600570
C           59.54358514621990       -0.38071032356776       -1.87812421394026
C           58.88575332117814       -1.27641590487025       -2.77441445994856
C           59.84760272178851       -2.06403528407487       -3.31546928303562
C           61.08759492494496       -1.66182348525463       -2.72381694469089
N           60.89561007845032       -0.56794199468525       -1.91117741712355
C           62.27133920170472       -2.38304176446698       -2.80617920212486
C           62.28073486945617       -3.67677795693749       -3.52391879766377
C           61.39903887363588       -4.69280176257687       -3.16438169370224
C           61.41115407017888       -5.91201685202384       -3.84007377387122
C           60.44218766286907       -6.95297749686266       -3.41216677794113
O           60.55268553515859       -8.10055116139142       -4.09567707811629
O           59.62431655162774       -6.80229245627523       -2.54093020343455
C           62.31007880692766       -6.12315186518490       -4.88539841811276
C           63.18935174400163       -5.11366690021078       -5.24508803352306
C           63.17838348194128       -3.90091838481976       -4.57112039800272
C           63.44111452755551       -1.94189704275703       -2.20032607091312
C           64.65877959677009       -2.69107877236824       -2.13274595750522
C           65.60357411740584       -1.85592173794443       -1.63355426211814
N           63.62660688458804       -0.68035668974988       -1.68832280840413
C           64.95992618506260       -0.60183963328676       -1.40259269858616
C           65.64118570694147        0.58404860426239       -1.11040811567387
C           64.96287977910805        1.79164033966847       -0.90928183835745
C           65.61145157211776        3.05534064180109       -0.75796919442478
C           64.64452442787608        3.95492294784367       -0.45167523097694
C           63.41256186987476        3.22768271416674       -0.38584298857033
N           63.61374178966901        1.91489118576060       -0.74997961528471
C           62.23115419466981        3.72437306897653        0.14490398379124
C           62.20070553753291        5.10039019953670        0.68901426181892
C           61.28280564302768        6.03052231894015        0.19474161737760
C           61.24992438957840        7.32508443739679        0.69343559949786
C           62.12802754814692        7.70621068221705        1.69429517010181
C           63.04529062021061        6.78432833311638        2.20092762970533
C           63.96778809119986        7.23112277911648        3.27557064988609
O           64.81488358709331        6.27679305796111        3.68661135844507
O           63.97482422432682        8.33963440367226        3.74572615608847
C           63.08069296774738        5.48534160387471        1.69865440198513
C           61.07588934294648        2.95322134439186        0.21155680600708
C           59.87629904206056        3.34187788158828        0.88723739060002
C           58.94145517262600        2.40440725177900        0.59186760046551
C           59.56919322172596        1.45742320286216       -0.27287506012541
N           60.89092300893380        1.76217082419798       -0.44554430254977
H           57.82475036609606       -1.28659423188498       -2.96288072850908
H           59.73512440126808       -2.85202131303261       -4.04198098262914
H           60.70579059540211       -4.55415205040404       -2.34195988281025
H           59.88971107819335       -8.72559551517786       -3.75987531345885
H           62.31675141744025       -7.07055254754360       -5.41055990292435
H           63.88877022213932       -5.26994394230544       -6.05851658195996
H           63.85927584952987       -3.11073091923059       -4.86709442873904
H           64.76609690676194       -3.72318829244679       -2.42423099754721
H           66.64574282293873       -2.05533603911036       -1.44325948370002
H           66.66996713868154        3.22018533092670       -0.87877378501592
H           64.74859314088103        5.01304680665807       -0.27531288489486
H           60.60320235817162        5.73711198951309       -0.59754684573511
H           60.53615930769381        8.03753316407338        0.29585219615181
H           62.11616523331484        8.71343125295356        2.09526732836216
H           65.37756264881332        6.64456760203035        4.38745534547433
H           63.78148898301428        4.76703313324383        2.10731356411912
H           59.77466704114791        4.21431461286328        1.51204593079906
H           57.91372591272481        2.35550726493832        0.91283221819847
Co          73.05151575246965        0.58372702442416       -1.09089805184520
C           69.66355827495927        0.59215496506103       -1.08713095633293
C           70.33694706260603       -0.40608945344722       -1.79983723384284
C           69.68288887390987       -1.38883879818827       -2.60428324815014
C           70.64401922889724       -2.24311907805246       -3.03272648535771
C           71.87711059368945       -1.79607317970168       -2.45736667919324
N           71.68381771730807       -0.61954933168911       -1.76838114732693
C           73.05173666104960       -2.53307096642131       -2.44154975854028
C           73.07275787678432       -3.87777879801873       -3.05924159591074
C           72.17841478049321       -4.86400901200251       -2.65215653801572
C           72.20192209297336       -6.12711867203051       -3.24186384661475
C           71.21774665675909       -7.13300871969214       -2.76790183206727
O           71.33832889808821       -8.32516663747211       -3.36895912858196
O           70.38024098952124       -6.92066790897481       -1.92891817728035
C           73.12558908351316       -6.41282879146924       -4.24706685619465
C           74.01904072711018       -5.43353507438767       -4.65248814211541
C           73.99637010690502       -4.17711917487597       -4.06441500904996
C           74.20783186861432       -2.05985564989362       -1.83071709944109
C           75.39834873761031       -2.83086069286459       -1.64464897399071
C           76.34040284508791       -1.98232640381947       -1.16363000076996
N           74.40438153225028       -0.76659181790768       -1.41393149067020
C           75.72528454482561       -0.69748946567586       -1.06552921116820
C           76.43400723384805        0.49244275467265       -0.86878741520954
C           75.78464846118423        1.73242718451280       -0.84490619628005
C           76.46206287461952        2.98737135996832       -0.78084034619410
C           75.51138489044915        3.93721598769185       -0.60306102349535
C           74.25693706037652        3.25207171821711       -0.52786610737480
N           74.43274189081396        1.90662977982189       -0.75749030594113
C           73.06946475534686        3.83483623273180       -0.10642616668928
C           73.06930314243377        5.25474279802154        0.31303131084550
C           72.22889218432960        6.17598635227958       -0.31653677164457
C           72.22394171829622        7.50833520772540        0.07176936585875
C           73.05222937275755        7.93643950715688        1.09581609209778
C           73.89253701217997        7.02438700643103        1.73612547974427
C           74.76233245741162        7.52145951418655        2.83227783470413
O           75.53883393091454        6.57185330995145        3.37365254789265
O           74.78708720769164        8.66313096321066        3.21417701276794
C           73.90091452710162        5.68759665456410        1.34398565341452
C           71.88366675002008        3.11609591906128       -0.03228961669552
C           70.66126516451820        3.61883978349365        0.51690268093967
C           69.70767054708034        2.68922642730878        0.26143203343144
C           70.35031752030909        1.62867767714032       -0.44761812436826
N           71.69001789758391        1.86572082930098       -0.56804598616292
H           68.62525111334132       -1.40690614611429       -2.81220536294277
H           70.53479297075101       -3.10450253261047       -3.67108385213035
H           71.46554031227562       -4.66730745224597       -1.85887977055712
H           70.66515733753563       -8.92335446262068       -3.00560447043957
H           73.14057284859452       -7.39407891514524       -4.70569983249430
H           74.73834611167888       -5.64792980748120       -5.43477318254314
H           74.68905727549199       -3.41159263841313       -4.39577946866786
H           75.49064643317108       -3.88477813886121       -1.85088636387816
H           77.36732232249527       -2.19223998261114       -0.91398796994055
H           77.52900873031687        3.11338730924836       -0.86172372322263
H           75.64005460082961        5.00388797133133       -0.51865731617336
H           71.58819999988734        5.84442993838920       -1.12599017660300
H           71.57049451281716        8.21301126570217       -0.42970232048436
H           73.06010231783929        8.97327399531238        1.41249699611203
H           76.07033410366188        6.97391768061720        4.07991326607957
H           74.54187021107293        4.97856689214397        1.85441821138364
H           70.55756837622728        4.55832599694950        1.03502421808607
H           68.65977795765434        2.71227998300558        0.51361239265161
