78
 energy: -143.500833391904 gnorm: 0.000874316103 xtb: 6.5.1 (b24c23e)
Cu           6.49863113402516       -0.01069706279405       -0.00766572535574
C            3.07502121468567       -0.05219047114313       -0.05121553367443
C            3.72532446613840       -0.91691059102783       -0.92027485201214
C            3.07365548811219       -1.81993047860227       -1.82933464227125
C            4.05020412939977       -2.48398287047775       -2.49624091994506
C            5.30620058867910       -1.99291868280761       -1.99942702057938
N            5.07802279925717       -1.04379563389019       -1.04630186000166
C            6.55538729543519       -2.42304004836948       -2.42385598506640
C            7.78238124222011       -1.97251893381670       -1.96055303221725
C            9.05724018739116       -2.44504095224156       -2.41989984902777
C           10.00449949893096       -1.76429168914171       -1.72610699363480
N            7.97173283387121       -1.01577641106910       -0.99999315938801
C            9.31396515773677       -0.87131583418008       -0.84052857866886
C            9.94406257741617        0.01864324274983        0.04804180108671
C            9.27227155941716        0.90211111123294        0.91113863940252
C            9.91817879158287        1.81174834318760        1.81312109550971
C            8.93729428076015        2.48133493856327        2.47024761008788
C            7.68615293596706        1.98338654975226        1.97372340977692
N            7.92303176889086        1.02500957922522        1.02556930927981
C            6.43682316507230        2.41065817469509        2.39831405041863
C            5.20952550644392        1.94958022836356        1.94343739682270
C            3.92974685548393        2.41118031406242        2.40700612412184
C            2.98670012459893        1.71924806930264        1.72052218529685
C            3.68261792670402        0.82965522420310        0.83129807086226
N            5.02835180966512        0.99103403728591        0.98952680515846
H            1.99007422339384       -0.06602971507478       -0.06387332629413
H            2.00445525580115       -1.92059091868830       -1.93200826748795
H            3.94636660462958       -3.24092576985915       -3.25792759689604
H            6.57500898769817       -3.18877398385182       -3.19261503498259
H            9.19566376752863       -3.20123722296662       -3.17653813762234
H           11.07705078251190       -1.84903664025988       -1.79935871008328
H           10.98644035210127        1.91492928974481        1.91983433194148
H            9.03766665369195        3.24492069809607        3.22554500722228
H            6.41764458199737        3.18066903660167        3.16286465653170
H            3.78812374560826        3.16858067774277        3.16213212106961
H            1.91309451191580        1.79281375822228        1.79706401373470
Cu          22.56729714155332        0.01309696248570        0.00016911618586
C           25.99094091363510        0.07120483719335        0.00006732004113
C           25.34130484092644        1.29596425716362       -0.06185417562478
C           25.99373432449461        2.57529832212622       -0.12619070003509
C           25.01775320484920        3.51580484445292       -0.17399145019505
C           23.76131314237987        2.81893438676021       -0.13824583814901
N           23.98870142900947        1.47536077053925       -0.07129912949731
C           22.51248429529474        3.42338522242224       -0.16450535477788
C           21.28502806059803        2.77907897088972       -0.12656194930714
C           20.01055750476564        3.43843475865306       -0.15026403895464
C           19.06263069614890        2.46854048391606       -0.09649888373813
N           21.09479494349467        1.42509920699002       -0.05996691256392
C           19.75236327270556        1.21169312695180       -0.04085619070635
C           19.12178179407695       -0.04423556755556        0.01707363073650
C           19.79314980610254       -1.27885542073290        0.06187262034263
C           19.14641824187876       -2.55830262124187        0.11583640531135
C           20.12668606004921       -3.49638452374423        0.15302797088830
C           21.37826454089061       -2.79465777394678        0.12256802698114
N           21.14225605312937       -1.44755339017442        0.06554693101805
C           22.62718114207387       -3.39717031315547        0.15096664613527
C           23.85485821846954       -2.75066734323086        0.12629703309502
C           25.13423131606413       -3.40474197356782        0.16016490057090
C           26.07786032100105       -2.43146387060988        0.11898283843130
C           25.38267555169319       -1.17467831197777        0.05891342241777
N           24.03682608327100       -1.39981814405019        0.06584985736520
H           27.07589805834329        0.08943010982173        0.00126779631209
H           27.06302698182861        2.71824073244868       -0.13324035958392
H           25.12228245145734        4.58820516191957       -0.22823364955310
H           22.49359492075236        4.50713952851727       -0.21802069593809
H           19.87286048001448        4.50705817247759       -0.20134703876672
H           17.99012447745618        2.58109109505272       -0.09516914728642
H           18.07805662839849       -2.70582168549595        0.12378420560134
H           20.02557890356590       -4.56939609760109        0.19794964593601
H           22.64564119473267       -4.48124369943263        0.19859080437584
H           25.27517006950573       -4.47321790775045        0.20930561691049
H           27.15139872056080       -2.53797306492064        0.12733406171411
C           15.14661891453842       -0.04103161976150        0.06464410408492
C           13.91924166759814       -0.01479524642340        0.07460528017516
C           12.57391854379369        0.00132943452892        0.07419480988391
C           11.35084247463158        0.02062171223047        0.07137062502707
C           16.49190334449114       -0.05408362075920        0.04881725279708
C           17.71498146501085       -0.06139826417649        0.03129718922403
