266
 energy: -511.332308328497 gnorm: 0.000960983821 xtb: 6.5.1 (b24c23e)
C           37.85613564213453       -0.12230531398388       -0.09759271174574
C           38.47484171252724       -1.32722888117278        0.20879499055831
C           37.83373138878379       -2.57132790552620        0.46779277128906
C           38.80197049188668       -3.49408968441343        0.74562791539423
C           40.06576671059313       -2.84047098604169        0.67394140827478
N           39.81840054024367       -1.54086702655858        0.33692813488531
C           41.33371228544240       -3.39898112215680        0.87397938199696
C           41.37555872811860       -4.82798361544117        1.26237725751745
C           42.02757678562175       -5.76224696139868        0.45168921682590
C           42.06576915474451       -7.09770591142341        0.80860967236888
C           41.45118577178727       -7.50281546856371        1.99010186888684
N           41.48924503056645       -8.90361449653317        2.37058834630884
O           42.06178420912408       -9.66597243104878        1.63504587685961
O           40.94633971216410       -9.21713439473648        3.39890220374520
C           40.79948864518866       -6.58854336617768        2.81279703704069
C           40.76168018206748       -5.25642524079765        2.44342204205656
C           42.54494056755286       -2.71524456894179        0.73755316540022
C           43.84480553403898       -3.30344794643352        1.00812082278996
C           44.75749941829724       -2.34101907970550        0.76314425315300
N           42.68877338866771       -1.41555619473048        0.36057128656386
C           44.01362439786169       -1.16458356166538        0.35569962498973
C           44.64178859243039        0.04751957811748        0.00385256759182
C           43.99683808952458        1.24841683363660       -0.34860178114895
C           44.63293133790538        2.46371885342376       -0.71544139471196
C           43.65959074377770        3.39234207062520       -0.95985393827972
C           42.39779498150556        2.77252334455644       -0.74142393983034
N           42.65327685046675        1.47581482531872       -0.38386591399098
C           41.12949718546421        3.34556732462935       -0.89298884884196
C           41.08513224711331        4.78088492040845       -1.25218628792814
C           40.45284092469321        5.19687399079654       -2.42848460390171
C           40.40625915677838        6.53685559449298       -2.76640579599051
C           40.99417158474039        7.47204865251194       -1.91913659211602
N           40.94644114871991        8.88046686920201       -2.26776129783179
O           40.37560077586500        9.18468948198200       -3.28379244721813
O           41.47841887910567        9.65892904274369       -1.51816469716710
C           41.62783955333906        7.07968890041576       -0.74334091521661
C           41.67261944230688        5.73678110049132       -0.41693457937739
C           39.91677271843378        2.66572155790120       -0.73030872952161
C           38.60552254769676        3.28760764550121       -0.84034701562165
C           37.70124785946348        2.31221827503653       -0.62313271777951
C           38.45816604673120        1.09957222035949       -0.36517747660247
N           39.78892448093699        1.35278613757506       -0.42831560795659
H           36.77143102950574       -0.14656332351310       -0.12242338432093
H           36.76742364745905       -2.72781505505336        0.43688631378716
H           38.65958165100468       -4.53849515166951        0.97092495073858
H           40.53758339689860       -0.83851148306713        0.20014047958278
H           42.49153202795586       -5.43625591656721       -0.47179087599851
H           42.56278009090374       -7.82981922357712        0.18369123436260
H           40.33334188798555       -6.92828085239540        3.72978759773670
H           40.26902156038707       -4.53305454652660        3.08259864626760
H           44.01423039247732       -4.31063905242323        1.35249169368953
H           45.83064044473311       -2.39364826788866        0.85170763670256
H           45.70002234522734        2.59933579882607       -0.78564965049565
H           43.80101347856144        4.41289270645336       -1.27594832919849
H           41.93552590957182        0.78716288675379       -0.18309787519161
H           40.01180757277260        4.45833873101179       -3.08761600676700
H           39.92345028592944        6.86733099406887       -3.67819693369533
H           42.07364317830042        7.82726921468374       -0.09830360721790
H           42.14908532915504        5.42136527606231        0.50401984734004
H           38.42545180270926        4.33127809630251       -1.04132788302255
H           36.62470862742586        2.37776075604345       -0.61995083753000
C          100.36647340837769        0.03181579451291       -0.15259302864482
C           99.75026571105288        1.22439826304364       -0.50829362099406
C          100.39381879799650        2.42310536262747       -0.92640989611361
C           99.42762692502453        3.36007279177917       -1.16031146012693
C           98.16269122292846        2.76554959116283       -0.88453717228032
N           98.40733871082642        1.47693434910807       -0.50599390042747
C           96.89614785226864        3.35029076975320       -1.00094959788474
C           96.85898228964854        4.77627955957693       -1.40109431382264
C           96.21362142324337        5.16461507251785       -2.57909103724804
C           96.18097127897575        6.49440083658343       -2.95727601299646
C           96.79420279527527        7.44615888920591       -2.14741450306375
N           96.76169085283297        8.84415952685066       -2.53858029437489
O           96.19681804054038        9.12321058077118       -3.56474320808212
O           97.30231580754021        9.63896683683040       -1.81296711521983
C           97.43934061947280        7.08106311461762       -0.96931894747382
C           97.47182325051647        5.74781219052405       -0.60366904258079
C           95.68315355188348        2.69652289725113       -0.76809166822839
C           94.38443933788783        3.34168146525345       -0.84521029718190
C           93.46951116044785        2.39277463086432       -0.55928016719309
N           95.53637309137555        1.38960233185891       -0.41814428878547
C           94.21089843225180        1.17453984418492       -0.29530032860888
C           93.58030454850663       -0.04170232752484        0.03727353558229
C           94.22277046684550       -1.25134905685397        0.36329145928624
C           93.58395791989666       -2.47842877231124        0.68332282301020
C           94.55535342708744       -3.40238287602832        0.95178073474780
C           95.81876265490406       -2.76353469550410        0.81117176589680
N           95.56599398650474       -1.46836906980208        0.44606534722851
C           97.08583208939856       -3.33706474888597        0.97086090380647
C           97.12735564814000       -4.75254038425214        1.40196883850879
C           97.75180985768085       -5.71658113234731        0.60368586727639
C           97.79485278103364       -7.03988700021718        1.00222176826462
C           97.21142186124351       -7.40419584441270        2.21257374033165
N           97.25520946407103       -8.79182365045284        2.63687454563786
O           97.81526541091581       -9.57807463474708        1.91653552069009
O           96.72856832976021       -9.07199436486626        3.68329614960860
C           96.58598744018178       -6.46063094210449        3.02280136905106
C           96.54466093644292       -5.14068897034743        2.61285168928644
C           98.29996811556911       -2.67543883725938        0.75279337711615
C           99.61006555781802       -3.26978813812242        0.97341047383487
C          100.51639100464818       -2.32565598787562        0.65174089532127
C           99.76196852929311       -1.15108991930355        0.25026702236708
N           98.43063181630765       -1.39563146159000        0.33293396244646
H          101.45107575830727        0.03639902452980       -0.19003707424443
H          101.46025845416040        2.53870942641631       -1.03505151806357
H           99.57199038562622        4.37160837451383       -1.50349640965932
H           97.68687167311566        0.80589998556562       -0.26129844500326
H           95.75063273293078        4.41264983158384       -3.20721164622044
H           95.68928793441441        6.80409008589511       -3.87153220768036
H           97.90471425599422        7.84149640632801       -0.35387007530325
H           97.95964556223099        5.45279749283852        0.31802786077480
H           94.21715636179144        4.38174083651271       -1.07328906240362
H           92.39634253405298        2.48513480947331       -0.51416101870467
H           92.51642745608592       -2.62729328436658        0.69816340853631
H           94.41149815585962       -4.43839197281216        1.21143222606707
H           96.28525258412373       -0.77805824127073        0.25671972628237
H           98.18936519587490       -5.42362579593326       -0.34347536833654
H           98.27145712110752       -7.79396860666198        0.38750721085133
H           96.14363761920023       -6.76855640451236        3.96258040629065
H           96.07459820913637       -4.39481826839075        3.24321944096828
H           99.78811372419349       -4.26799149361170        1.33942322401573
H          101.59287946001808       -2.38412841436257        0.68337123032076
C           46.04697021276041        0.07236599204836        0.00261513744728
C           47.27168058755680        0.08583676948439       -0.00397908285480
C           48.61380414584442        0.09293404944958       -0.01436666360046
C           49.84468579336258        0.09068872953174       -0.02467577803299
C           51.18192710992722        0.08497912246434       -0.03796073615013
C           52.41282462550165        0.07261332770874       -0.05098850510857
C           53.75460928290193        0.05918907272130       -0.06421292935880
C           54.97946975412008        0.03856796577427       -0.07033444474366
C           64.64455057867916        0.03213570910391        0.03038536917235
C           65.86940778194402        0.04374673870252        0.05282223163242
C           67.21079319612480        0.05457906915771        0.06898410518321
C           68.44192541754714        0.06215508108004        0.07605860329178
C           69.77875378772048        0.06275038793139        0.07697400872065
C           71.00989932738086        0.05834715041634        0.07066038755164
C           72.35132325868281        0.04672657356971        0.05817022832368
C           73.57616672827558        0.02621622325837        0.04239521301720
C           83.24207668574562       -0.10590118388184       -0.02438741925306
C           84.46698060557254       -0.10797243473297       -0.00887153702339
C           85.80892759474416       -0.10641593883013        0.00600136880677
C           87.03982942577053       -0.10034483886634        0.02176874031140
C           88.37718471272514       -0.09498203889608        0.03479413900518
C           89.60801610633055       -0.08632231949048        0.04456444918539
C           90.95026542356000       -0.07562083962071        0.04886587136430
C           92.17495284354862       -0.06093913165921        0.04938844907845
C           56.38362007567836        0.02201484038767       -0.07819319594160
C           57.01817022798531        1.01592308669623       -0.84856407933057
C           56.37652912542986        2.03230549387353       -1.60229030347133
C           57.34596104645693        2.76842152737639       -2.22679994880260
C           58.60837548506122        2.21664448344270       -1.87642227953340
N           58.36008463776052        1.16710796595500       -1.03391493556212
C           59.87287090550096        2.66400137328036       -2.28082366079419
C           59.89726948242134        3.79653571668675       -3.23627865066204
C           60.51891316328926        5.00006147832721       -2.88914288346797
C           60.54861907553016        6.05837148399455       -3.77870815225200
C           59.95516050103048        5.91105088093961       -5.02922220272945
N           59.98746695765732        7.01748779566791       -5.96927345095718
O           59.45534682097112        6.85690041322084       -7.03768094036844
O           60.54493595792131        8.02719739232117       -5.62299957359121
C           59.33137824110550        4.72156412395185       -5.39464729732755
C           59.30242140003099        3.67122227400634       -4.49551291270863
C           61.09538273514984        2.13608146463389       -1.86076117465235
C           62.38602758976242        2.59286802289304       -2.34569139982725
C           63.31688128692794        1.85761311800450       -1.70381457259179
N           61.26303183664033        1.12602432969960       -0.96389329285796
C           62.59341216115951        0.94532291469033       -0.84010379970110
C           63.24101780684563        0.01850480627646        0.00160064590506
C           62.60586309719734       -0.93770017870402        0.81772944379007
C           63.24636008001309       -1.86691211287230        1.67741522441720
C           62.27735951265871       -2.63354093687946        2.26461327071997
C           61.01653823853575       -2.19775218398417        1.77303175857021
N           61.26512167137619       -1.16388949582375        0.91135838164551
C           59.75302753455485       -2.69783965697683        2.11349395182552
C           59.73272481373847       -3.85681436298425        3.03682919201747
C           60.35445175649186       -5.05648168821133        2.67655202610578
C           60.33860173089032       -6.14198527394146        3.53317127775791
C           59.70013712419990       -6.02553294938519        4.76455562279209
N           59.68511836277496       -7.16076621501781        5.67016309881187
O           59.11602787653985       -7.02659572003486        6.72295676279894
O           60.24428073884509       -8.16590599927651        5.31323873226218
C           59.07727625991907       -4.83973729737409        5.14351160460409
C           59.09433917318785       -3.76189514445193        4.27726419560415
C           58.53070087107644       -2.19738327152494        1.66011053593153
C           57.24183683101303       -2.77681061608244        1.99533605296962
C           56.31053028057689       -2.01331848938128        1.38784276473204
C           57.03217833638598       -0.97955569817905        0.67215669656904
N           58.36223424732999       -1.12200934795128        0.84294839092531
H           55.30956790488650        2.17725043976357       -1.65216060842536
H           57.20076123306759        3.62483070742306       -2.86467823345133
H           59.07745410104642        0.59076619968382       -0.60673405971995
H           60.96702260710706        5.10600403031538       -1.90815545387941
H           61.02356153843972        6.99616882060665       -3.51680235746571
H           58.88069164788712        4.63076106966611       -6.37561198446434
H           58.83235061781209        2.73524608710724       -4.77405934942125
H           62.53824846099774        3.36053689091345       -3.08674923580287
H           64.39014131715940        1.90128836171911       -1.79567066834371
H           64.31213050208439       -1.93109845394502        1.82544001930886
H           62.42184292794224       -3.42335007753600        2.98342736986285
H           60.54857778067174       -0.64143475407033        0.41854027262183
H           60.83687824931667       -5.13923031620822        1.70957601589642
H           60.81184746728883       -7.07737426693841        3.25971744932812
H           58.59080499366638       -4.77360692629641        6.10923129777223
H           58.62449459889525       -2.82905903651588        4.56614204835962
H           57.09139288287286       -3.65559555757882        2.60095971801511
H           55.23816976130450       -2.12370062438148        1.39823842354708
C           74.97968321580527        0.00048357087791        0.02129439947855
C           75.61365560489769        0.98617882606203       -0.75993369368921
C           74.97209050761606        2.01096266144976       -1.50216617329056
C           75.94012638993169        2.73614236836531       -2.14127766641741
C           77.20137483689359        2.16836612093893       -1.81241207047537
N           76.95406015956534        1.12155754009584       -0.96615861508927
C           78.46399234395139        2.59985444401546       -2.23907523068774
C           78.48122613889734        3.73105002919271       -3.19648383537397
C           79.11657369908802        4.93135588507045       -2.86392462749435
C           79.12984742795581        5.98975443119493       -3.75398632929602
C           78.50640239801945        5.84551036401490       -4.99017668877255
N           78.51752569041027        6.95344627054292       -5.92906417207421
O           77.95889031054179        6.79537663773032       -6.98422447390187
O           79.08374571072341        7.96217810325499       -5.59442756928299
C           77.87096556073034        4.65812905346933       -5.34208572424949
C           77.85877171158943        3.60783196820075       -4.44265949656503
C           79.68723925166749        2.05624670140478       -1.84147614100467
C           80.97491664168209        2.49978787421638       -2.34596633013973
C           81.90745411827770        1.74938263600591       -1.72425153778918
N           79.85760360109114        1.03949313812301       -0.95279238377956
C           81.18772042849551        0.84069885488827       -0.85362069183720
C           81.83767991408014       -0.10200811641936       -0.03175628916339
C           81.20455518504558       -1.05557376577255        0.78911920023532
C           81.84827483248364       -2.00166414964317        1.62785610119422
C           80.87975490911394       -2.75233476450420        2.23613041807132
C           79.61566571090454       -2.28961405283222        1.77899028280622
N           79.86238494737729       -1.25772406383327        0.91443747117959
C           78.35155752222683       -2.76404026901774        2.15246336925506
C           78.32844392594096       -3.92037847283804        3.07905536987970
C           78.91037014218719       -5.13613967792155        2.70697822719055
C           78.88342558724682       -6.22043701047914        3.56495363862931
C           78.27443829627182       -6.08649139974970        4.80941897202873
N           78.24473237065598       -7.22153047075857        5.71482460060958
O           77.69941087996143       -7.07237775766164        6.77812282879201
O           78.76732097544034       -8.24215091208185        5.34659735876442
C           77.69341686906499       -4.88371737893506        5.20111925559758
C           77.72115086479855       -3.80723498260706        4.33358564220392
C           77.12813872329474       -2.24169265034918        1.72800377285256
C           75.83764418751835       -2.79925649412003        2.09320571347078
C           74.90583056766295       -2.02465530912083        1.50094057606289
C           75.62839729384740       -1.00499216516777        0.76619986184283
N           76.95920131247097       -1.16638706714790        0.91084835689025
H           73.90633302411709        2.16921253909564       -1.53399235725435
H           75.79478443418908        3.59543215429646       -2.77520179304589
H           77.67108439950894        0.53538558125289       -0.55198766366590
H           79.58699141882909        5.03572505393869       -1.89325864750842
H           79.61382212944061        6.92586866290839       -3.50277359688572
H           77.39711232011221        4.56937082040299       -6.31227541254726
H           77.37850457630819        2.67381270822291       -4.71021106364963
H           81.12369298492220        3.27034220769645       -3.08474675600321
H           82.97946785724942        1.78020483424886       -1.83427646933113
H           82.91598747693902       -2.08746159720911        1.74836036031895
H           81.02688174616291       -3.54861773760369        2.94724206375607
H           79.14385099073141       -0.71891997455741        0.44255476628156
H           79.36878216370904       -5.23262706457730        1.72966362507427
H           79.32445084095545       -7.16866599115525        3.28208704181393
H           77.22966680357962       -4.80401341730590        6.17693288624066
H           77.28283359908147       -2.86191084899268        4.63126431823071
H           75.68607212621610       -3.67291200556967        2.70590680151269
H           73.83236201808553       -2.11852697611796        1.53395706182362
