254
 energy: -463.542436947370 gnorm: 0.000923678982 xtb: 6.5.1 (b24c23e)
Co          43.07823116319604        0.02635894690282        0.05144812104835
C           39.71055801929563        0.03046077937307        0.19070799328758
C           40.36469928834501        1.24065894738228        0.09934861688901
C           39.70366075406616        2.50748880698899        0.01906174454869
C           40.66408274347489        3.45489500147559        0.13405286455659
C           41.90910077689051        2.76425243182748        0.30473087975776
N           41.72236579377120        1.40914697690573        0.20843828563249
C           43.10455351304755        3.37815538080096        0.65641137997991
C           43.11979906478764        4.83483336624104        0.91529193260942
C           42.30616760132073        5.38813995622625        1.90700555216444
C           42.32237474073735        6.74907955158374        2.15350736423518
C           43.15291832998167        7.58737248506269        1.40381133670026
C           43.16911746842145        8.98891932904083        1.65260025712601
N           43.18187759802395       10.12226093804847        1.85205347923413
C           43.96802149970277        7.03890916586604        0.40904501872437
C           43.95171683507976        5.67617752458845        0.17252503251328
C           44.28418648786647        2.65960939036487        0.78655480719980
C           45.52583828858181        3.21829736923478        1.23026016658637
C           46.46949846638598        2.26163730004466        1.05562344269709
N           44.45715494684502        1.34790938273042        0.40942905131538
C           45.80118620049983        1.12239030895410        0.51136029944791
C           46.46754551096453        0.00334310066743        0.00447528460764
C           45.77391099622765       -1.09646004369309       -0.50856657483953
C           46.41061379006997       -2.22596763779272       -1.10783073005103
C           45.44470719273340       -3.15493054539671       -1.30867823601095
C           44.22350092992411       -2.59444090589646       -0.81288629734427
N           44.42828802617404       -1.30067093777835       -0.38998537042573
C           43.04259465730057       -3.30497369478520       -0.65643849285755
C           43.02210127266203       -4.74999811134226       -0.97341553425753
C           42.13926133192373       -5.25177671862423       -1.93290068734651
C           42.11754453386526       -6.60187131419449       -2.23284772996884
C           42.97877640630828       -7.48117917160956       -1.56964901798970
C           42.95651678566006       -8.87186878800232       -1.87286215883494
N           42.93807062871775       -9.99638990405371       -2.11614170719983
C           43.86183232576968       -6.98470305536659       -0.60614848970695
C           43.88267416760934       -5.63246015780193       -0.31588263616901
C           41.87886200349552       -2.69840203752825       -0.19943674914645
C           40.65050155481489       -3.39264111711376        0.05553408334876
C           39.71126659551298       -2.44909865182293        0.30205467050105
C           40.36785269479456       -1.18100401075380        0.20439963184432
N           41.70897271828790       -1.34808232214361       -0.03738383613823
H           38.62830014438752        0.03128338266104        0.24298451595333
H           38.64007204054175        2.63478034109253       -0.10487502887431
H           40.55281814475174        4.52683987545461        0.11204658626629
H           41.67058112572027        4.73992381059883        2.49961948586476
H           41.69320488645151        7.17015185779945        2.92895008135669
H           44.61118947557834        7.68607335830010       -0.17575932386450
H           44.57654794053884        5.25598663906831       -0.60750741381418
H           45.64817523060324        4.21410180613936        1.62406716049359
H           47.52670907963999        2.31097855994879        1.26086541545769
H           47.46274652054823       -2.28607625274486       -1.33508023432664
H           45.54033843998951       -4.13432898845444       -1.74831330594329
H           41.47819782310099       -4.57146098980991       -2.45783385627315
H           41.43437520582522       -6.98277469378615       -2.98293756790432
H           44.52803301962889       -7.66388473364863       -0.08721717672258
H           44.55939862492640       -5.25347208863338        0.44161626780941
H           40.53563392582618       -4.46439461122639        0.04383304707767
H           38.66341525500554       -2.57925585360620        0.52079035327717
Co          98.62504358738425        0.01257652964059        0.07844597285174
C          101.99386507330161        0.01222845075426        0.19860415638672
C          101.33911748010851       -1.20054666581483        0.17381143717549
C          102.00050173784912       -2.46965562936365        0.15993893918474
C          101.04062218508538       -3.41013921758160        0.32382927084327
C           99.79507158115224       -2.71241278611693        0.45824020156159
N           99.98118938138440       -1.36366625842098        0.28986277693512
C           98.60036765598328       -3.30835401380184        0.83926898495686
C           98.58484512859997       -4.75049504338080        1.17016774407365
C           99.39758342614414       -5.25401912181964        2.18878270452839
C           99.38092893542142       -6.60103205682438        2.50269294813722
C           98.55028777194403       -7.47535158943372        1.79541088720170
C           98.53312228337589       -8.86269749659082        2.11359425583262
N           98.51994961620051       -9.98428219547663        2.37022686593113
C           97.73609597639177       -6.97685183935775        0.77396858117667
C           97.75321885968725       -5.62764553988078        0.46970900424322
C           97.42049463062931       -2.58399009693165        0.93375886613463
C           96.17978442957137       -3.12026463759715        1.40625226504820
C           95.23576890963365       -2.17301682825062        1.18783346985047
N           97.24701009135651       -1.29282965820525        0.49265767544581
C           95.90245090442527       -1.06137724553788        0.58768346666841
C           95.23548873948108        0.03189142360462        0.03097407256593
C           95.92668309278416        1.10519024286280       -0.53537128070419
C           95.28737149429413        2.20538784695997       -1.18430505725622
C           96.25292682191873        3.12153928570487       -1.43782827479201
C           97.47701442770091        2.58425944895243       -0.92407742036800
N           97.27443171693983        1.31295164347369       -0.43734806674170
C           98.65991226963995        3.30039427418868       -0.81391617764636
C           98.68062475729683        4.72619959754026       -1.20926001107503
C           99.55427842493357        5.17101319753668       -2.20450844637426
C           99.57585538214528        6.50208749318112       -2.57989957009077
C           98.72363386707289        7.41952523825511       -1.95802710571926
C           98.74546232389825        8.79069389853862       -2.33982095457309
N           98.76306051778523        9.89998262181474       -2.64531065576112
C           97.85052847145113        6.98041907379301       -0.95824374320534
C           97.82978389306186        5.64659521197230       -0.59243985208740
C           99.82508666470457        2.71760933826842       -0.33247053641680
C          101.05511404470724        3.42324237038144       -0.12068472993147
C          101.99445445016218        2.49373923282638        0.17366899598756
C          101.33683909526955        1.22270070191042        0.14758665966599
N           99.99518406649946        1.37727239384478       -0.09956512157179
H          103.07619417637200        0.01378097069035        0.24862782963820
H          103.06420526835061       -2.60264116488992        0.04312790340443
H          101.15244089065747       -4.48170854483987        0.35775451909509
H          100.03294490111946       -4.57728807191638        2.74889975225102
H          100.00958286960221       -6.98313422775445        3.29849813417209
H           97.09300259755480       -7.65213798523119        0.22183507868901
H           97.12881877330412       -5.24669517955508       -0.33056725532708
H           96.05833230673622       -4.09574664590786        1.84827556385196
H           94.17907170497618       -2.21207132250582        1.39786333147158
H           94.23357444495805        2.25622759134548       -1.40617413259141
H           96.15521212685013        4.07859382338262       -1.92377314401450
H          100.20808749715533        4.46042106815371       -2.69742550944899
H          100.25167433446335        6.83840314962364       -3.35748745655778
H           97.19202680279200        7.68967436763015       -0.47072838924785
H           97.16042814789735        5.31252472161023        0.19225897607712
H          101.17052718462570        4.49269047733072       -0.19137635930599
H          103.04315021692520        2.63465280359574        0.38152077630603
C           47.86887020961086       -0.00992992866290       -0.00136192763261
C           49.09412372894356       -0.01885173020808       -0.00271628441657
C           50.43477808798252       -0.02514402541217       -0.00623104044133
C           51.66655586155594       -0.02654977316320       -0.00939569006335
C           53.00217929192122       -0.02507442523323       -0.01119914078602
C           54.23407358206605       -0.02168922608460       -0.01375707823187
C           55.57425179569991       -0.01798054399587       -0.01544183660723
C           56.79995350363875       -0.01296086661883       -0.01869249799262
C           66.38251134523793        0.00932790685095        0.02040279099768
C           67.60826505828634        0.00846716163368        0.03057386112461
C           68.94826917135657        0.00826891066116        0.03875583344429
C           70.18035066910792        0.00829400037177        0.04193248165959
C           71.51566169862927        0.01037688242293        0.04238563578367
C           72.74770065892082        0.01303318819620        0.04033068163858
C           74.08782852395746        0.01695262249468        0.03479305669913
C           75.31350110840808        0.02156574152507        0.02785569483242
C           84.89969954578862        0.05420977875382       -0.00606271654876
C           86.12450361404923        0.05622615768047       -0.00200367834631
C           87.46635143108681        0.05749715968719        0.00223424865654
C           88.69726309386242        0.06093999967137        0.01064874976328
C           90.03463715521923        0.05960115399385        0.01472286979716
C           91.26537282207131        0.05938555664482        0.02203219155335
C           92.60777954327658        0.05375468528005        0.02453767406183
C           93.83206245849571        0.04558140633669        0.02791156689069
Co          61.59133016937259        0.00176381479993       -0.00810017878788
C           58.19990915939264       -0.00604600917296       -0.02416291880975
C           58.88755835621979       -1.21378400445811       -0.18350779057788
C           58.24515620286265       -2.48333171083463       -0.30539461216347
C           59.20375869745646       -3.36926171669846       -0.67228591092954
C           60.42578699230865       -2.63197711011870       -0.78113610586639
N           60.22974416035871       -1.32233979332063       -0.41169815724922
C           61.60429987453868       -3.13674490574638       -1.31516879690871
C           61.60716362201763       -4.50409555328732       -1.87933286415080
C           60.74043813854973       -4.84090184099715       -2.92196957644997
C           60.74141443820078       -6.11762116686011       -3.45407695549413
C           61.60884101070886       -7.08854583495640       -2.94466266654027
C           61.60989425513375       -8.40496866663523       -3.48678758692585
N           61.60991910942420       -9.46892803590363       -3.92528243128753
C           62.47529639367712       -6.75764173818451       -1.89856211096208
C           62.47441620208095       -5.47691973433804       -1.37616698812467
C           62.77930259195946       -2.39767611736324       -1.32941771606055
C           64.01171913522890       -2.84613895886426       -1.90357207119702
C           64.96486390938097       -1.96152553033528       -1.52054840152474
N           62.96376629516196       -1.20327112422453       -0.67234802063163
C           64.30813335020945       -0.97059919686746       -0.72894342495364
C           64.98270362804722        0.01056447779062        0.00543293903474
C           64.29349144166622        0.99616899886407        0.71996401869675
C           64.93393572815648        1.99563992175305        1.51399857988154
C           63.97490477246064        2.88948102514288        1.85975938488789
C           62.75470663741402        2.43482786045346        1.26520533244195
N           62.95217075563873        1.23418055414866        0.62472660834488
C           61.57763645508349        3.17030394643835        1.22423809421604
C           61.57164581615450        4.54557923763886        1.76880360482799
C           60.69676709369975        4.89482633608325        2.80048847918269
C           60.69145710472525        6.17863299067182        3.31517862381189
C           61.56106820425644        7.14413323845457        2.79926740372365
C           61.55524370246638        8.46756847444440        3.32394132429215
N           61.55136804290258        9.53689763050891        3.74888863372631
C           62.43620847417158        6.80058168211694        1.76451326224862
C           62.44156214744064        5.51285153428050        1.25960965227098
C           60.40501636696766        2.65008008263518        0.69296739654257
C           59.17545515757939        3.37452166276450        0.58023594753675
C           58.22255111451689        2.47381404102979        0.23582370713304
C           58.87663458949683        1.20908901035732        0.12548202899114
N           60.21996188065746        1.33432713318370        0.33759721840976
H           57.19427189832567       -2.65663933920392       -0.13881738145078
H           59.10235128138579       -4.42655150687130       -0.85528121428598
H           60.07479571004486       -4.08731973328824       -3.32743042298206
H           60.07116898005134       -6.36954223670315       -4.26752899537247
H           63.14582939450491       -7.50903206367283       -1.49833437165338
H           63.13836655744566       -5.22782362282157       -0.55613111450089
H           64.12364520935513       -3.72655932067591       -2.51506578731405
H           66.02038190375146       -1.96988370249978       -1.73958606516856
H           65.98383695077280        2.00384985339597        1.75856214316431
H           64.07490690334426        3.77840758381326        2.46097981458471
H           60.02999211701228        4.14545309972039        3.21181868916515
H           60.01480126424723        6.44022351667043        4.12022575885775
H           63.10885332367436        7.54757864206331        1.35962858956108
H           63.11300121428498        5.25344126321931        0.44892087553602
H           59.06503870068728        4.43332308258600        0.74856309270793
H           57.16866857053302        2.63439502467759        0.07559675152615
Co          80.10558459226262        0.04887177057919       -0.01482589057029
C           76.71362418563434        0.02873050797357        0.01763089629981
C           77.40049294904470       -1.17710321748450       -0.15596854007043
C           76.75642355774096       -2.44567801098206       -0.28252915394212
C           77.71373952639921       -3.33152670953109       -0.65163112535748
C           78.93679528948520       -2.59520849964619       -0.75966332837986
N           78.74290225119582       -1.28666484741039       -0.38219892216477
C           80.11226112613424       -3.09974311902554       -1.29812366035053
C           80.11503786787033       -4.46726915119990       -1.86220130466538
C           79.24580234545259       -4.80587894460180       -2.90212675341432
C           79.24843782947508       -6.08228757587599       -3.43499144606715
C           80.12044546659759       -7.05105886821165       -2.92938238852621
C           80.12358336662085       -8.36664788129096       -3.47343309642611
N           80.12639681888744       -9.43010624057227       -3.91287493072378
C           80.98941958726850       -6.71843210203489       -1.88586419428397
C           80.98667951205776       -5.43804116196516       -1.36264517731085
C           81.28674244537837       -2.35871346719834       -1.32086394605479
C           82.51379052016881       -2.80374285032604       -1.90854754063280
C           83.46852854739986       -1.91561104851097       -1.53747782114143
N           81.47525068043738       -1.16626201828756       -0.66311186443417
C           82.81846979032669       -0.92687300336547       -0.73797662448737
C           83.49777483868540        0.05275216655562       -0.00786767858026
C           82.81426469988038        1.03313108272824        0.71701039965730
C           83.46125800625379        2.03281122071038        1.50547153073370
C           82.50421303407032        2.92320723927817        1.86459393156349
C           81.27818103518622        2.46675433480090        1.28362637486992
N           81.46971915146017        1.26637923943161        0.64154713448311
C           80.09946298588396        3.20103855712605        1.25964789239683
C           80.09958980468340        4.57565392273998        1.80623508875423
C           79.23908371873191        4.92309528395110        2.85047861499727
C           79.23986488620699        6.20646234251767        3.36635991629054
C           80.10116369851347        7.17328833218615        2.83911541530052
C           80.10155776108397        8.49608711906192        3.36542112282036
N           80.10278282599606        9.56566231336081        3.79001787264270
C           80.96173225000578        6.83161643869779        1.79157841968308
C           80.96102863524280        5.54437191544105        1.28545559835402
C           78.92205417170686        2.68176179055235        0.73999690313025
C           77.69060581651566        3.40542530623642        0.64225144861503
C           76.73595160614894        2.50620863640226        0.29919551038539
C           77.39023894621249        1.24267054822596        0.17562290667452
N           78.73436920144952        1.36688521329722        0.38176498029786
H           75.70532375748213       -2.61803393677945       -0.11628317814447
H           77.61098171146091       -4.38805505640945       -0.83825866609158
H           78.57698124751936       -4.05384958344116       -3.30521074544780
H           78.57632647968980       -6.33553755951879       -4.24646120094805
H           81.66367403950532       -7.46810172393620       -1.48863051513117
H           81.65315592402459       -5.18742588607282       -0.54510788377595
H           82.62118621924827       -3.68367960566580       -2.52160204309657
H           84.52135443233067       -1.92043311295100       -1.76926685130896
H           84.51410156867681        2.04360996487328        1.73685055744173
H           82.60917418248187        3.81160633900141        2.46568081918393
H           78.57887677439550        4.17271637762055        3.27048345433624
H           78.57454275654467        6.46677765615047        4.18122938499183
H           81.62782109665068        7.57961543700547        1.37779350063400
H           81.62121046354430        5.28626999663865        0.46515200563683
H           77.58067850143976        4.46314705679474        0.81770147847210
H           75.68081140097451        2.66696667475841        0.14738967968819
