116
 energy: -198.671725123723 gnorm: 0.000738077813 xtb: 6.5.1 (b24c23e)
Cu          14.03534462450498       -0.05540471262035       -0.00387919703477
C           10.62879677991230       -0.07289045037566       -0.02789934124851
C           11.25995108696091       -1.30598711297965       -0.09595371122859
C           10.58063438209296       -2.56909822373960       -0.14066388432170
C           11.53632800514499       -3.53034087024197       -0.18252229627353
C           12.80933034809350       -2.86211866258915       -0.17243458127004
N           12.60995155883824       -1.51272448656545       -0.11306004833052
C           14.05164424607568       -3.50051619990394       -0.18914493378580
C           15.28707786743444       -2.85250196911727       -0.13718862580791
C           16.56242454462415       -3.50879634708423       -0.19842750766918
C           17.51204456485524       -2.54106568933601       -0.13574405566945
N           15.48069936776210       -1.49901728994717       -0.05074292247689
C           16.82503181451268       -1.28784802971975       -0.04425011830466
C           17.46424552808748       -0.03753669403193        0.02340521397544
C           16.81007689838599        1.20553780058237        0.08244763080821
C           17.48299281270192        2.46933897552692        0.11922962805562
C           16.52266024107412        3.42740125070151        0.16113934724293
C           15.25490485262078        2.75381220610312        0.15843429342393
C           14.01254501023824        3.38986601081607        0.18301178441175
C           14.00343294769159        4.87279123707432        0.26332465556292
C           13.46949251816398        5.63323739641929       -0.77747397654290
C           13.46392903515748        7.01813280820682       -0.70264680291982
C           13.98551194570632        7.65910172866022        0.41278744084647
C           14.51645489640202        6.90914418568043        1.45349151592680
C           14.52862332543380        5.52430056908735        1.37983082701385
C           12.77726411462537        2.73948411427037        0.13759735708971
C           11.49717299243028        3.39051099457788        0.20692443514076
C           10.55214103376848        2.41982137699704        0.14472712774824
C           11.24531417149247        1.16725008147327        0.04528616362856
N           12.59288000568665        1.38985117262644        0.04793074426494
N           15.46356374186217        1.40094572095289        0.10174107367368
C           14.05795784110353       -4.98359369512584       -0.26638499853001
C           13.53306678601241       -5.63590417498379       -1.38264062115684
C           13.53995095067031       -7.02098146565680       -1.45287168972194
C           14.06574109690368       -7.77042219099097       -0.40915236826207
C           14.58827962128483       -7.12867987500852        0.70535587208321
C           14.58738344029191       -5.74367027424269        0.77707101148029
H            9.54362301435292       -0.07979920261475       -0.02140834291135
H            9.50878907680927       -2.69050160795493       -0.13322695169863
H           11.39912747456226       -4.59947255326002       -0.20603513472281
H           16.70843713111450       -4.57290400866488       -0.29067556636034
H           18.58413377990431       -2.65543360178253       -0.15588993507744
H           18.55364385872462        2.59737476924989        0.10758738398666
H           16.65659915496776        4.49689667638684        0.17981806315265
H           13.07216771785790        5.13422830851535       -1.65441007390052
H           13.05134780808863        7.59936739157182       -1.51988062805190
H           13.97847559740118        8.74167512443299        0.47088401503418
H           14.92272182665692        7.40498219122187        2.32819498123540
H           14.93363962239207        4.93953381638465        2.19833794854212
H           11.34835817136296        4.45404794992205        0.30328700587067
H            9.47910390385301        2.52762048131248        0.16975783486019
H           13.13273686060648       -5.05171803694760       -2.20390320996325
H           13.13350479507033       -7.51745304948135       -2.32711529706187
H           14.06837667965083       -8.85314398854490       -0.46440383405128
H           14.99807635669604       -7.70953975452470        1.52428093375458
H           14.98519665358596       -5.24408315893359        1.65339392790040
Cu          27.49950346962741        0.05626367587230        0.00077386880126
C           30.90612071755100        0.07464783993421       -0.02194169027957
C           30.27494559547124        1.30956587368322       -0.03275093074843
C           30.95422651251866        2.57339016999258       -0.01817085356479
C           29.99853980086083        3.53556622011626       -0.01850519583965
C           28.72558442156838        2.86760907920224       -0.04192548730378
N           28.92495441344233        1.51692524341776       -0.04293671628237
C           27.48321063386732        3.50617150478794       -0.03444278181806
C           26.24775784045779        2.85642775832878       -0.01324382069433
C           24.97239768569159        3.51454519989857       -0.04958574399832
C           24.02283745076290        2.54497519573208       -0.02860603982674
N           26.05421169537087        1.50050045174562        0.01626770116383
C           24.70986115932963        1.28907769810411        0.01198842769674
C           24.07062870629568        0.03708024299917        0.02783275802180
C           24.72467634935692       -1.20744022777180        0.03510741425394
C           24.05185363709059       -2.47171973754215        0.02098520640677
C           25.01226670123719       -3.43062108771447        0.02062954891056
C           26.27997687438882       -2.75732765015523        0.04252780964957
C           27.52229560439132       -3.39374169597602        0.03528794340097
C           27.53121187252012       -4.87889161096921        0.05043136567182
C           28.05500943767945       -5.59317590568070       -1.02745425390677
C           28.05970516775954       -6.98003398253014       -1.01348855069206
C           27.54769727412085       -7.66891428396964        0.07752567709210
C           27.02711587703258       -6.96500791422357        1.15495163052875
C           27.01552294889045       -5.57826225377056        1.14207584983462
C           28.75752205282006       -2.74216851651572        0.01492249059386
C           30.03758245590018       -3.39593779466124        0.05035762535454
C           30.98270471409601       -2.42352181514793        0.03183565677278
C           30.28960115311060       -1.16755946984849       -0.00712195574527
N           28.94200213768633       -1.38985292517805       -0.01248868486811
N           26.07120369370001       -1.40330374020631        0.04337425594435
C           27.47709885450655        4.99114476850390       -0.04932228717904
C           28.00787419146084        5.68917506061655       -1.13475832098394
C           28.00119875586616        7.07594423430769       -1.14749430665447
C           27.46981629954889        7.78156848622092       -0.07649856362476
C           26.94133797142776        7.09421718279848        1.00759974915486
C           26.94183628690830        5.70742004994222        1.02183137855349
H           31.99129744385502        0.08126477902997       -0.01490934180037
H           32.02603546970905        2.69433270160296       -0.00266310210118
H           30.13582194775442        4.60463016081451        0.00718818052234
H           24.82624786463322        4.58153269803065       -0.09800819046837
H           22.95077384728724        2.65993309046400       -0.04585815039285
H           22.98118627305701       -2.59928850374405        0.00672961307606
H           24.87862139609647       -4.50002920544129       -0.00445727036275
H           28.44500107778070       -5.05634619527333       -1.88511210290807
H           28.46404128048295       -7.52516364095579       -1.85920778333948
H           27.55406530744735       -8.75299103204728        0.08801534202605
H           26.62841831206002       -7.49846136963816        2.01080164412224
H           26.61827138172043       -5.02959480260119        1.98887157821308
H           30.18615801077025       -4.46290153773522        0.09577112398051
H           32.05577685093476       -2.53248067932250        0.04922251066877
H           28.41325180479997        5.13945393312890       -1.97726499981337
H           28.41340544037313        7.60819623011113       -1.99820260922057
H           27.46786339184031        8.86563838621674       -0.08685185280092
H           26.52769101233050        7.64069124943345        1.84774732781740
H           26.53991935243950        5.17218309107458        1.87463611981722
C           20.09236345234946       -0.00851167883104        0.02496019848716
C           18.87082495551978       -0.02671355882509        0.02233799183934
C           21.44250417301906        0.00765931056359        0.02607981185343
C           22.66403205717300        0.02671428780933        0.02598322463409
