420
 energy: -645.839361772557 gnorm: 0.000589816306 xtb: 6.5.1 (b24c23e)
C           78.44684314377737        0.07440249634071       -0.03003911493284
C           79.05541947949510        1.28165101495781        0.28823545830915
C           78.40353719149340        2.49987291348816        0.62969523321819
C           79.36594927637671        3.43958685747774        0.87087914005896
C           80.63720526795970        2.82913554902241        0.67218919055749
N           80.39869029263393        1.52765876634403        0.33112436814549
C           81.89999378685626        3.41558221563330        0.80918573193176
C           83.11576556163737        2.75275094272934        0.62505114564748
C           84.41136975553529        3.40244726235005        0.70913695718392
C           85.33411288089032        2.44695736063153        0.47370542093611
N           83.27355559555254        1.43378356789439        0.32654724250161
C           84.60216988018871        1.21737834196392        0.23854111155221
C           85.24039101878434       -0.01317255835754       -0.01252114178470
C           84.60587518654583       -1.24576270966927       -0.25410984233230
C           85.24849551612382       -2.49022429303772       -0.48863038911279
C           84.28109455743754       -3.43139711166409       -0.70875758641739
C           83.01591180057696       -2.78683992493401       -0.62746302738016
C           81.75476326443821       -3.36926031826074       -0.79235392368152
C           81.72471954373928       -4.81257442489755       -1.13567140366677
C           81.11220543499718       -5.72722598684119       -0.27979541847815
C           81.08433973480251       -7.08122211330971       -0.59547853490804
C           80.41062736085233       -8.06285856637143        0.32502073575590
C           81.66911272776416       -7.51772503426029       -1.78072645819586
C           82.28301414291356       -6.61739491244394       -2.64610862572750
C           82.89264924992212       -7.09628131062119       -3.93603847120561
C           82.30950806529223       -5.26624849112365       -2.31735215821047
C           80.53806552929011       -2.69176037673800       -0.66610605656820
C           79.23617703357078       -3.29914369639957       -0.89464516722526
C           78.32050703234931       -2.33309170549039       -0.67963349267262
C           79.06200089915431       -1.13413967791943       -0.33025505298170
N           80.39388631887087       -1.38511702544538       -0.33984079289128
N           83.26394110217298       -1.47062931461474       -0.33927823519515
C           81.93217293123755        4.85200995866055        1.18156019241407
C           82.53327600490960        5.25230364639091        2.37334861037459
C           82.56157816152206        6.59565468916668        2.73555454081051
C           83.22400838858974        7.01352117109778        4.02059821767051
C           81.98681798189948        7.54064108350026        1.89267997710526
C           81.38333665340079        7.15688644347005        0.69769944924254
C           80.78386676069907        8.19378194965456       -0.21356948700057
C           81.35761826600083        5.81177387864519        0.34813388134052
H           77.36154504230487        0.08524090057263       -0.04028012588651
H           77.33401717855608        2.62553080479205        0.68719183066158
H           79.21478287030669        4.46490127992636        1.16736240396224
H           81.12396824033365        0.84340554803859        0.14405950750053
H           84.57106046866913        4.44975443953242        0.90827230153380
H           86.40788314590722        2.54145861939338        0.45612506558474
H           86.31620187812307       -2.63881669340730       -0.48665444928910
H           84.42746213162924       -4.48115127041625       -0.90443257335751
H           80.67277521132156       -5.37713319015405        0.64781001166704
H           79.37176803962871       -8.20539089657848        0.01856425232846
H           80.90932471003941       -9.03183806013007        0.29109384989473
H           80.41468008352624       -7.69884065434426        1.35252347926883
H           81.64870358272408       -8.57339316461837       -2.03137856723646
H           83.71806390556621       -6.45162003143422       -4.23874373657292
H           83.25994850187240       -8.11793146237072       -3.83645072520465
H           82.14149223448366       -7.08131250581796       -4.72913033073690
H           82.77325043315744       -4.55379093433768       -2.99094277653588
H           79.07139435418081       -4.32272606122787       -1.19067427207453
H           77.24564410391365       -2.39307670750259       -0.75063397676807
H           82.54276472121830       -0.76816347919531       -0.21240272572647
H           82.96541154224651        4.50517160376366        3.03000703715030
H           82.97182009164604        6.32280000070723        4.82606739341762
H           82.91782658032999        8.01890040347327        4.30940414735841
H           84.30942149290014        7.00696057604371        3.89863746278203
H           82.00575640478741        8.58979017679236        2.16941152868663
H           80.29849455613152        8.98132223549552        0.36380962396998
H           81.56775283363432        8.65344488656208       -0.81979480901592
H           80.05153859492331        7.74609017390831       -0.88544503327611
H           80.90337227556380        5.50301704929502       -0.58711957631652
C          139.77677490569172       -0.04418755893918       -0.07644433009037
C          139.17572442900129       -1.26882168955757       -0.33709443280573
C          139.83479256123223       -2.50587138305302       -0.58399263736401
C          138.87795042421624       -3.45686302674827       -0.80178409173398
C          137.60309190533766       -2.82934115548062       -0.70499671592202
N          137.83386949634416       -1.51444537105717       -0.41396183266971
C          136.34454272837272       -3.42029959932156       -0.85952362008115
C          135.12358446616895       -2.75605686557494       -0.71954299187075
C          133.83383171229283       -3.37748263724411       -0.96011477993973
C          132.90355519648466       -2.42758262093622       -0.73163548122030
N          134.95513246655716       -1.45095668737387       -0.37048222628763
C          133.62484034894311       -1.22662063947429       -0.35780742126586
C          132.97743356210964       -0.01541483100641       -0.04373425434566
C          133.60432139362081        1.20447344226630        0.27103286944614
C          132.95506839632981        2.41238609942820        0.63937951290635
C          133.91692905166025        3.35688726803406        0.86943985716811
C          135.18534383006113        2.75538610813735        0.64154783297942
C          136.44303165060916        3.35475050808786        0.76864427221467
C          136.46366806173626        4.79298016673136        1.13257266487469
C          137.07115247109553        5.20888387127974        2.31679442543326
C          137.08817353778764        6.55428729034115        2.66786741726763
C          137.75537365716391        6.99934197395951        3.94126832219950
C          136.49773528846868        7.48773550523235        1.82097831172870
C          135.88887762872506        7.08892955187736        0.63485267255294
C          135.27251136375159        8.10933226207325       -0.28375336140211
C          135.87308072377749        5.74001606157490        0.29676950835591
C          137.66452803790162        2.70079305745844        0.58035204355220
C          138.96199443935743        3.35384327295138        0.65918093160233
C          139.88518624444285        2.40000163731345        0.42278853906931
C          139.15275748381279        1.16749827876308        0.19109969701775
N          137.81871568694370        1.38818191332826        0.28401700182389
N          134.94476078710230        1.45297902966715        0.29112319823881
C          136.32354732082243       -4.86352234432254       -1.20502138828133
C          135.72194124964429       -5.78226005412457       -0.34728053210000
C          135.70352192158512       -7.13759808605444       -0.66253443145077
C          135.04037584276477       -8.11660930514216        0.26835238911858
C          136.28824820111973       -7.56953502239751       -1.84805213607134
C          136.89227068820725       -6.66377603979062       -2.71644170972818
C          137.50210019935923       -7.14307576634227       -4.00612469620771
C          136.90837504846192       -5.31299388096759       -2.38909198693390
H          140.86212334091206       -0.04345901629040       -0.08398875206732
H          140.90501024153545       -2.63851577284405       -0.58600031314089
H          139.03481449517838       -4.50392700172790       -1.00446413394075
H          137.10503890616928       -0.82344918290033       -0.27075819035299
H          133.68290126899092       -4.39661682677695       -1.27724460464592
H          131.83171245036755       -2.50472807101693       -0.81701061746211
H          131.88740563099626        2.53209512785632        0.72765230618215
H          133.76493302260170        4.37731544476093        1.18133184526307
H          137.51462708437276        4.47050506792306        2.97577420760055
H          138.79179034878223        7.27902048182075        3.73863064663553
H          137.24709095182416        7.86688253893685        4.36291633488780
H          137.75816089313301        6.19762851629364        4.67987019949667
H          136.50922287295114        8.53885455734105        2.09057739454321
H          134.47118051901228        7.66631835202867       -0.87542549491887
H          134.87051498236772        8.94928804503767        0.28332647339182
H          136.02928843149073        8.49505302005297       -0.97074140104160
H          135.41299721213542        5.41927752110871       -0.63159404411657
H          139.11892772415678        4.40229467096319        0.85577207159599
H          140.95974062773811        2.49206571139042        0.39389470148858
H          135.66984656618678        0.77261560643419        0.08882284797169
H          135.28156552021375       -5.43608207461926        0.58135888557502
H          135.28023396670258       -7.88391113967801        1.30651157667095
H          135.35757512502587       -9.13693431867282        0.05323421968394
H          133.95555286079147       -8.06291292423069        0.15292238948690
H          136.27657883543137       -8.62511785491627       -2.09954439389644
H          137.98146470231072       -8.11303973038638       -3.87023590037015
H          136.72504824104860       -7.25344838108459       -4.76593276818281
H          138.24143630141288       -6.43237474064857       -4.37557601694312
H          137.36290932552257       -4.59657636091956       -3.06477353537647
C           86.65025805375514       -0.02618021859738       -0.02475312357161
C           87.86700060098470       -0.03400971802153       -0.04350701136060
C           97.56681948939512       -0.06973272414791       -0.08505882606513
C           98.78537466486219       -0.06877421477829       -0.09296996100888
C          108.49413171525622       -0.02814063834516       -0.06417043734053
C          109.71292516095518       -0.02225408109628       -0.06452513709639
C          119.42562851229201        0.00838957077763       -0.07981757148834
C          120.64439878699405        0.01247520741670       -0.07290112960078
C          130.35033629781233       -0.00289452928171       -0.03839558015708
C          131.56729556986608       -0.00948634978195       -0.04206076642815
C           89.27583943432353       -0.04220908598081       -0.05919117236272
C           89.90048110574027       -1.23445683486621        0.35170876286493
C           89.25680257594287       -2.40376043299167        0.83191652663413
C           90.22225758566029       -3.33399873495746        1.10611980112063
C           91.48460650539707       -2.76111546883075        0.79263176767129
N           91.24022061212798       -1.48727693420628        0.35409008644819
C           92.74161813316415       -3.36854906998051        0.90109645975862
C           93.96636434646315       -2.75607428353515        0.63110866943154
C           95.23843241293761       -3.45449278838489        0.65806107600397
C           96.18481997781535       -2.53467551013815        0.37680933859756
N           94.15994633952536       -1.44595326913766        0.31262739766861
C           95.49143627113607       -1.27835736345152        0.17859184271636
C           96.15989804634805       -0.06513291073263       -0.08659821844051
C           95.53124039932057        1.16679072015240       -0.35691768432485
C           96.17060141778450        2.41380659697370       -0.57355447034354
C           95.20424883838749        3.34121248643260       -0.85375972169904
C           93.94424490290167        2.68525926665589       -0.81782806639810
C           92.68928915578473        3.25519033498822       -1.06655788758910
C           92.68696592178298        4.67201168399748       -1.50795745904406
C           92.02483618018694        5.64524061207337       -0.75946964278262
C           92.01573280388850        6.97125514398717       -1.17587122808988
C           91.31451608442246        8.02338023733346       -0.35976744962883
C           92.67560196491083        7.32285812052321       -2.35074733299984
C           93.34000457835616        6.36437610644933       -3.10858346757790
C           94.06417335684807        6.75191115470323       -4.36967208340921
C           93.34467880661954        5.04059307139062       -2.68050421796042
C           91.46144210503714        2.60391337298062       -0.93889998675173
C           90.18464138644778        3.21087003762150       -1.27023316766227
C           89.23841036189549        2.29429194983023       -0.97878872952646
C           89.93817288210390        1.12653246859626       -0.48195321182460
N           91.27120014071932        1.33393338957223       -0.48680291972718
N           94.19118436598987        1.37758145932542       -0.49435566122088
C           92.75465461947599       -4.78195131661251        1.35343065320805
C           92.10050641022099       -5.76954789608269        0.61899011580868
C           92.11014357872548       -7.09299859958342        1.04860567311597
C           91.38814983146840       -8.14852903005840        0.25511297405237
C           92.77549079400022       -7.42359939456538        2.22456707852411
C           93.43436915628921       -6.44875011627674        2.96903920200860
C           94.13467082010141       -6.81541698794287        4.24955542972906
C           93.42126886829840       -5.13069997258398        2.52812570885179
H           88.19171509870728       -2.50959249609014        0.95993231308626
H           90.07439387039719       -4.32591556372838        1.50076697808315
H           91.95763602214564       -0.82347942111964        0.08241559629178
H           95.36661892231031       -4.50801398431393        0.84704191995803
H           97.25015718060079       -2.67352641959073        0.29077191652797
H           97.23342556088105        2.57825220657442       -0.51046898958610
H           95.34913386859996        4.39011221300385       -1.05458863822867
H           91.52606378822978        5.36138604258766        0.16066195439337
H           92.04224109179945        8.57972616609567        0.23523701170468
H           90.79667879228141        8.73165563179377       -1.00750750772455
H           90.59100123378920        7.57221602284443        0.31915198052609
H           92.66747214132451        8.35683062577503       -2.68012820903694
H           93.99323437304454        5.95983733688195       -5.11565573348816
H           95.12190728137634        6.91902905473696       -4.15347584441767
H           93.65305957529164        7.67018946179998       -4.78907807721612
H           93.84455045430860        4.28198063615263       -3.27300933732608
H           90.05231292032775        4.19756536769347       -1.68355540088794
H           88.16952556234146        2.37184110758859       -1.09622199510665
H           93.47571134651730        0.66880317876835       -0.37269640648066
H           91.59893771155774       -5.50424057852615       -0.30537459467105
H           91.78567040110509       -9.13994912101190        0.47230056858365
H           91.47878299197519       -7.95793648639915       -0.81467757820499
H           90.32601491254815       -8.14292104759369        0.51061534684259
H           92.78476143884387       -8.45412411719383        2.56451261212240
H           94.91967784478385       -6.09613362202155        4.48327809680063
H           94.57595292342056       -7.80996337524180        4.17885540366353
H           93.41968070665324       -6.82003790017779        5.07548156855204
H           93.91976742430910       -4.35992599571565        3.10560636511669
C          100.19190540823284       -0.06873351983849       -0.09109590392416
C          100.82906499748482       -1.19360625987846        0.46971801411871
C          100.20389057812459       -2.30101694422797        1.09629957991115
C          101.17876924210852       -3.19939399859848        1.43692261027255
C          102.42917568334700       -2.66688784134824        1.02248025144616
N          102.16954178462578       -1.44296909678864        0.46612949217502
C          103.68646855030671       -3.27568985769697        1.12859917416439
C          104.90454377318304       -2.68965692295197        0.78073490368818
C          106.17415610196900       -3.39265269345209        0.80108064710935
C          107.11693479848833       -2.48773955375591        0.46386796693631
N          105.09450096832811       -1.39499936596427        0.40220549145304
C          106.42332123357728       -1.23702343609329        0.23559481894796
C          107.08797247948660       -0.03075404815646       -0.06990829373514
C          106.44906070531619        1.18539262810032       -0.38542606306771
C          107.07165756574598        2.43539524448222       -0.62925810368355
C          106.09661006021142        3.33388220453062       -0.96934323503236
C          104.84870845655804        2.65500666958138       -0.94728938678278
C          103.59295905886967        3.17950997082369       -1.27967449717677
C          103.57337953688111        4.57235131715624       -1.78972329785203
C          102.83322351397673        5.55247900066271       -1.12753494995460
C          102.80918148888757        6.85924699994380       -1.59965169728680
C          102.02598061675893        7.91941669223237       -0.87342227183056
C          103.53149734851604        7.18486307740087       -2.74508310834024
C          104.27168788072221        6.21915292279696       -3.41853975708782
C          105.06071573876859        6.57701823141280       -4.64910166565410
C          104.29134984009737        4.91473500345424       -2.93439610405843
C          102.37628987914790        2.50409039249136       -1.17151198222663
C          101.10924101771350        3.04343118999003       -1.63000723073404
C          100.16638262846378        2.13582794342312       -1.30024465415785
C          100.85753933834847        1.04471143539099       -0.64503846357840
N          102.18535383799269        1.27785570163918       -0.61016472615242
N          105.10961687407429        1.36642071406537       -0.56430676446148
C          103.70556445703819       -4.66175868778480        1.65665381827312
C          102.99575798927407       -5.67274171404256        1.01070422853189
C          103.01331899583458       -6.97467352396743        1.50142962363863
C          102.23196530693744       -8.05322738240796        0.80062184802655
C          103.74392061429070       -7.26028830696367        2.64982559085321
C          104.45848857846191       -6.26173103905882        3.30695278965600
C          105.23102476041353       -6.58259644722981        4.55794615371721
C          104.43592946423207       -4.96560583117746        2.80602616355591
H           99.14471766227878       -2.38998555394948        1.27228875733454
H          101.04499191006792       -4.14247829681868        1.94111124617416
H          102.87630459569262       -0.81171591362586        0.10419637703694
H          106.30339371734078       -4.43933420810974        1.02424258573648
H          108.17929993721692       -2.63430057518699        0.35665234282232
H          108.12916496622941        2.62223361726291       -0.54314122025533
H          106.22846734440954        4.37754567947471       -1.20368590087380
H          102.28551716473841        5.28933694013494       -0.22930800806155
H          102.69623874234334        8.51677810032508       -0.25125952240004
H          101.53602772334162        8.58943167223955       -1.58078553790304
H          101.26929352464367        7.47229654134510       -0.22883070507187
H          103.51255695046841        8.20387366650008       -3.11778927645927
H          105.01021355345036        5.77539169433569       -5.38665719507222
H          106.11017695801550        6.72824111186545       -4.38630687807397
H          104.68572989116056        7.49577092010605       -5.09997429741975
H          104.85087722639079        4.15028458465383       -3.46254416770486
H          100.98186250180713        3.97928434245875       -2.14963166937672
H           99.10583658817458        2.17186908058033       -1.48888456521874
H          104.40444236692291        0.64922821913187       -0.43258770557416
H          102.44408219657021       -5.44350694758044        0.10543697727379
H          102.60029334941171       -9.04221224758189        1.07306145626053
H          102.29903836485336       -7.93707735470461       -0.28159912982251
H          101.17829644353849       -7.99075122055301        1.08200891179351
H          103.76125050080256       -8.27383285791398        3.03720770781455
H          106.00665478747842       -5.83837299308183        4.73850704326060
H          105.69580196035704       -7.56624792693832        4.48327195223226
H          104.55836062257931       -6.59101283078691        5.41859554208285
H          104.97710274659109       -4.17663667588338        3.31662097115648
C          111.11904606617507       -0.02209729851340       -0.06725802554610
C          111.75885047409068       -1.14797010072352        0.48931270385360
C          111.13766235047191       -2.25503799314668        1.12019989167354
C          112.11403224935840       -3.15617563774286        1.44943641063844
C          113.36130453822135       -2.62555998951696        1.02348279510373
N          113.09873733265532       -1.39962915258597        0.47282074519669
C          114.61780344815223       -3.23856598027588        1.11276809097184
C          115.83409354035267       -2.65458016854094        0.75513097958602
C          117.10102803376137       -3.36259751724785        0.75662701344631
C          118.04406086026781       -2.45804016494080        0.41909816071308
N          116.02540237102377       -1.35742124796738        0.38618142885055
C          117.35350844106760       -1.20247034812871        0.20994016949006
C          118.01913422578190        0.00577858373182       -0.08581829028763
C          117.37900994070074        1.22419280904220       -0.38967466929768
C          118.00031507159609        2.47576744209999       -0.62828236660569
C          117.02414782681599        3.37553683629378       -0.96148766161017
C          115.77653522243369        2.69611277924415       -0.93968911699478
C          114.51987034626372        3.22281697613718       -1.26568698782389
C          114.50103510945911        4.61681403139067       -1.77245197561651
C          113.76360900227895        5.59679177266614       -1.10702743289639
C          113.74132340403395        6.90469913654369       -1.57615794980664
C          112.96112814690403        7.96430961775551       -0.84591038472797
C          114.46312460864706        7.23179719888209       -2.72146995090121
C          115.20083307569337        6.26633601608623       -3.39801768712915
C          115.98990681812980        6.62552125822416       -4.62817030263023
C          115.21821847311850        4.96065938437240       -2.91724479682639
C          113.30259244506526        2.54930382603323       -1.15346386196305
C          112.03399573586718        3.09256956409849       -1.60303868075345
C          111.09117123640681        2.18606946366143       -1.27019089861076
C          111.78378840519873        1.09149840113954       -0.62244112679860
N          113.11216404638867        1.32184644580135       -0.59439617648805
N          116.03889027605275        1.40577747375909       -0.56394973890307
C          114.63893078944527       -4.62723423561336        1.63402995411910
C          113.92097069057154       -5.63408067044609        0.99066833238358
C          113.94199899361243       -6.93840898716428        1.47492640608872
C          113.15305107765465       -8.01316679842706        0.77677968781523
C          114.68351108570310       -7.23035074014360        2.61472208179695
C          115.40589888622746       -6.23585556402502        3.26943892725513
C          116.19020927666280       -6.56355971907120        4.51129282770894
C          115.38046744241815       -4.93749990841901        2.77451776423326
H          110.08017719756283       -2.34203382047704        1.30684303017622
H          111.98343083397442       -4.09999766017820        1.95310739466512
H          113.80282155008409       -0.76884806048589        0.10492619480656
H          117.22820638954381       -4.41192366250824        0.96826663350932
H          119.10443021536381       -2.60822346799753        0.29887969135382
H          119.05788659448375        2.66264621867302       -0.54393253266687
H          117.15518589918356        4.42040118410024       -1.19081600476450
H          113.21685810736905        5.33275427194546       -0.20848140019091
H          113.63103402702093        8.54825726262629       -0.21073824151786
H          112.48421358611374        8.64668072683154       -1.55030710694054
H          112.19430796608529        7.51726053508938       -0.21333423173934
H          114.44589025144036        8.25178574970592       -3.09156519761297
H          115.92960496538211        5.82974166167425       -5.37133448214874
H          117.04151864238020        6.76450751459885       -4.36723493676439
H          115.62265577762408        7.55107593623657       -5.07140973425093
H          115.77568493320707        4.19645972108579       -3.44794579089891
H          111.90533866248956        4.03024207856512       -2.11903946108426
H          110.02946862758938        2.22531223119349       -1.45139156272354
H          115.33443970523621        0.68763304758018       -0.43356461041251
H          113.36035211434431       -5.39980845091853        0.09221023503130
H          113.52706342526696       -9.00340042725558        1.03671226889910
H          113.20497239352991       -7.88883729566818       -0.30535310265365
H          112.10325413974924       -7.95509231115174        1.07318244616498
H          114.70333694336267       -8.24575072893962        2.99710817325170
H          116.96634309508802       -5.81932484994806        4.68961117683551
H          116.65574698111205       -7.54600140161351        4.42609816289416
H          115.52536036623765       -6.57857699867720        5.37790001251012
H          115.92830048548838       -4.15170262781364        3.28289672864921
C          122.05123156340674        0.01046025592012       -0.06420553791648
C          122.68095312237972       -1.12697583904413        0.48000252524647
C          122.04399089048775       -2.24145179192117        1.08218666147048
C          123.01122959333310       -3.14527866316075        1.42843721435151
C          124.26954018920313       -2.60904521474979        1.04334642811828
N          124.02079935855471       -1.37968114509202        0.49332381676331
C          125.52428086108854       -3.21356310430294        1.19011871165518
C          126.75130222945201       -2.62813499277220        0.87426882971316
C          128.02645246301896       -3.31411260532861        0.98316942548196
C          128.97391865451581       -2.41638697026427        0.64181153124123
N          126.94361212408947       -1.35115107087435        0.44363063390756
C          128.27679735070356       -1.18933032385798        0.31285093395523
C          128.94129824069182        0.00126000923334       -0.03962186406130
C          128.31603481199221        1.21084845265539       -0.39624894227050
C          128.95962303503569        2.43009925921991       -0.73007379061177
C          127.99334617172934        3.33802683578287       -1.06869711594017
C          126.73072564020858        2.69364232863287       -0.96516682086215
C          125.47494900474000        3.23767077123945       -1.26185657393370
C          125.46349688388831        4.62991338152472       -1.77644890576492
C          124.78957045080507        5.62864755727596       -1.07334015570478
C          124.77521103110305        6.93668043963767       -1.54294120823922
C          124.06544148019128        8.01586767731600       -0.77075593874032
C          125.44035924505197        7.24389328813943       -2.72713943197452
C          126.11304522700526        6.25873697416205       -3.44227771511413
C          126.84099261074270        6.59807968354948       -4.71503776819735
C          126.12355538303831        4.95326264686531       -2.96060474208255
C          124.25019814284599        2.58428622979432       -1.11691430212046
C          122.98181308941955        3.14967052694419       -1.53897047331544
C          122.03389211580303        2.24666294260625       -1.21204029802433
C          122.72240929572889        1.13307538289981       -0.59260485796550
N          124.05310050307484        1.35161316003839       -0.57170714474586
N          126.97556963988515        1.41622506894220       -0.53737572584084
C          125.52890314555050       -4.59631758531924        1.72921561716721
C          124.86596681366905       -5.61665424556676        1.04910395097620
C          124.87289340730678       -6.91725876035118        1.54316673977275
C          124.14329893478852       -8.00756197270276        0.80573459406685
C          125.54472795951320       -7.19177503404149        2.72971054552504
C          126.21000779824337       -6.18329629510851        3.42211439243787
C          126.91845855769046       -6.49213964399137        4.71338995479330
C          126.19858013552080       -4.88816134833690        2.91753419422182
H          120.98217114551588       -2.33018848386325        1.24044096175974
H          122.86786370847662       -4.09450505509781        1.91823104443637
H          124.73500864820090       -0.74796466612209        0.14707975763485
H          128.15739284383841       -4.34463557756510        1.27088471687469
H          130.04310230186465       -2.54958144965237        0.60774608723618
H          130.02605488911308        2.58619205965070       -0.71250673577174
H          128.14099483275865        4.36504717273927       -1.36018565350427
H          124.28559002321050        5.37869844258277       -0.14619332729637
H          124.78071336896512        8.56078590129011       -0.15045644543981
H          123.59350941207832        8.72888113184292       -1.44748529487231
H          123.30305853648298        7.59044077293377       -0.11814603371087
H          125.42965544783604        8.26373124264873       -3.09790977411158
H          126.74573269860520        5.79080126655900       -5.44185717203442
H          127.90382095817019        6.74206397650905       -4.50748959584281
H          126.45179417969456        7.51659840778759       -5.15426684074543
H          126.63030855736260        4.17427635128574       -3.51984922012750
H          122.85695127573474        4.09890780793932       -2.03436319181020
H          120.97064725528152        2.30071627483687       -1.37936141416303
H          126.25900839675475        0.72128677023242       -0.35624859842349
H          124.36015031481391       -5.39497461976388        0.11560565079525
H          124.54426147375916       -8.98808585198577        1.06246682468695
H          124.22197967857414       -7.86473800600138       -0.27240370191277
H          123.08404367708744       -7.99112897900203        1.07242607434949
H          125.55440166120792       -8.20459545994227        3.11925964346197
H          127.68253593525304       -5.74468680162679        4.92687260886726
H          127.38821244813288       -7.47530362427747        4.67069106915069
H          126.20293729035747       -6.49476015874179        5.53880151129350
H          126.70184797708524       -4.09175730036802        3.45464817265022
