470
 energy: -906.557123946287 gnorm: 0.000582214275 xtb: 6.5.1 (b24c23e)
C           79.14995700635546       -0.11389041407648       -0.02182568200939
C           79.76633849913726       -1.32372619561192        0.26984419455755
C           79.12125609991990       -2.56604612039754        0.52780536435925
C           80.08757611191292       -3.49779931348068        0.78127413773666
C           81.35431471185215       -2.85139811355337        0.69754403598311
N           81.11020562858930       -1.54708134674502        0.37630311969227
C           82.62220859476434       -3.41743342248441        0.87651630652308
C           82.66667638333772       -4.85158999748789        1.24339938370333
C           83.32343526731856       -5.76970606847332        0.41763621796439
C           83.36803966452587       -7.11060747038551        0.75214675021916
C           82.75386783965068       -7.53837469054960        1.92593634219130
N           82.79886872552989       -8.94501279903870        2.28308100572632
O           83.38304952293012       -9.69085916470357        1.53943404655207
O           82.24842657877319       -9.27989372148376        3.30070079693969
C           82.09687830915924       -6.64093537031648        2.76299409311207
C           82.05395152168104       -5.30274395698113        2.41665878629204
C           83.83374624959782       -2.73475423898675        0.73504651973870
C           85.13455650216970       -3.32555607560246        0.99550538041130
C           86.04690430430514       -2.36344149421310        0.74810021782112
N           83.97681322978157       -1.43398942670576        0.36196090351290
C           85.30199587777257       -1.18525099027221        0.34774813836654
C           85.93030712275970        0.02425736582997       -0.01190305500760
C           85.28778572572840        1.22618952104218       -0.36482905613652
C           85.92645580337921        2.43515066312431       -0.74789042411531
C           84.95546523417042        3.36659085000921       -0.99080127253093
C           83.69294841087158        2.75518118620785       -0.75387022965683
N           83.94532898925594        1.46024689875949       -0.38792523827719
C           82.42566136765758        3.33284949228027       -0.89464792655042
C           82.38414347230174        4.76332713153396       -1.27312218939080
C           81.74293412876720        5.16451733060001       -2.44966487433049
C           81.70513659463646        6.49877676876875       -2.81059769754099
C           82.30968588202344        7.44314460309662       -1.98550786862959
N           82.27290281002736        8.84548538181274       -2.35929246338541
O           81.70295540689470        9.13610714662778       -3.37977009207758
O           82.81568014551411        9.63242710000434       -1.62646158704392
C           82.95015243371903        7.06576118140385       -0.80849949144594
C           82.98681892854373        5.72828307063590       -0.45945828764704
C           81.21274167896449        2.66035815611316       -0.70605996070054
C           79.90301086180276        3.28795348011358       -0.79835957694306
C           78.99801515020434        2.31933519547679       -0.55516721179644
C           79.75337090956653        1.10452200617319       -0.30216575310396
N           81.08393982384985        1.35058211316289       -0.39077154090176
H           78.06484117421242       -0.13216693440330       -0.02805540799826
H           78.05362009856887       -2.71554322162235        0.51156074090704
H           79.94149421991783       -4.54353806490327        0.99777659005256
H           81.83231702067519       -0.84875621766329        0.23412092323629
H           83.78648441102786       -5.42623535237128       -0.49999988283178
H           83.86963829090556       -7.82962616129410        0.11568328713052
H           81.63140616808828       -6.99821072044553        3.67370107873909
H           81.55888304227450       -4.59257502235934        3.06873307655434
H           85.30512402780903       -4.33349436522696        1.33711971639045
H           87.12048831030687       -2.41761575698922        0.83010907685783
H           86.99346339544677        2.56462711995959       -0.82996198812796
H           85.09893976224654        4.38366008980990       -1.31699801634569
H           83.22570406375915        0.77727858133865       -0.17471256904821
H           81.28883835735657        4.41853546324804       -3.09132257321699
H           81.21696588318197        6.81765580751200       -3.72366333378826
H           83.40836741098816        7.82047099235961       -0.18068272320109
H           83.46960610420717        5.42453229015931        0.46212305014158
H           79.72526533360593        4.33075946255909       -1.00596578819180
H           77.92206440262295        2.39051298399748       -0.53271662490124
C          197.27439775015279        0.05577916652630       -0.07501508215156
C          196.65701639192667        1.24217537284447       -0.44917322604268
C          197.30127533818353        2.44033688610609       -0.86795958908714
C          196.33424329265807        3.36826120878939       -1.13245656542105
C          195.06781095512420        2.76962959553052       -0.87304349790105
N          195.31288620571439        1.48689737702607       -0.47486402300518
C          193.79951252967570        3.34489020122128       -1.01621298807144
C          193.75514784729330        4.76314322572422       -1.44069478608485
C          193.10467841820787        5.12505359670172       -2.62471839113160
C          193.06037959671102        6.44715972716742       -3.02734858584424
C          193.66848050381969        7.41844641640972       -2.23692198872422
N          193.62329058159693        8.80864416797671       -2.65351516472933
O          193.04510661751971        9.06532536241913       -3.67835044973884
O          194.16770460828681        9.61985686829294       -1.94902736202693
C          194.31948924308648        7.07997968624831       -1.05399259567482
C          194.36220980262681        5.75418646274067       -0.66295359275115
C          192.58813564921965        2.68544427083673       -0.78923252999421
C          191.28629285473903        3.32261744640681       -0.88019110468851
C          190.37474343642381        2.37033880672313       -0.59474927018758
N          192.44627118884515        1.38013040781975       -0.43187762190433
C          191.12111415448842        1.15779335403289       -0.31905378397497
C          190.49419999154259       -0.06116011558843        0.00947614520458
C          191.13772758935895       -1.26910142783527        0.33924614593075
C          190.49972930454595       -2.50005708647887        0.64589755583026
C          191.47139159878344       -3.42202986918312        0.91997791472227
C          192.73375121927575       -2.77749332095294        0.79769376062532
N          192.48047628092331       -1.48135895625340        0.43656141270525
C          194.00149951259263       -3.34511458998855        0.97099509974291
C          194.04396830688336       -4.76502779400617        1.38740048989170
C          194.67897648119441       -5.71761517668342        0.58385785803574
C          194.71639471754580       -7.04651624209672        0.96404301169554
C          194.11780351677163       -7.42756273253073        2.16177767511221
N          194.15337425601552       -8.82159289530472        2.56559005919998
O          194.71690314383591       -9.59888267045745        1.83828195821202
O          193.61635137907089       -9.11565909600392        3.60288929726473
C          193.48411530856526       -6.49500642302537        2.97831513365346
C          193.44773525810828       -5.16946906623694        2.58626100183934
C          195.21393070770898       -2.67296549732686        0.77825443794572
C          196.52433976448143       -3.25832998293745        1.01893941523491
C          197.42855423108625       -2.30358454424842        0.72357315736815
C          196.67207222881149       -1.13268353133894        0.31480969035857
N          195.34163922683558       -1.38898229673191        0.37014546414278
H          198.35949386123420        0.06888763769753       -0.09069810264709
H          198.36889754167757        2.56128674875674       -0.95748508916501
H          196.47958753061175        4.37610274536007       -1.48589390469980
H          194.59123162416049        0.81448735175293       -0.23738588568407
H          192.64632949327429        4.35804151400035       -3.23793709385095
H          192.56355025032843        6.73597283435990       -3.94573163547030
H          194.78050521426138        7.85527344991353       -0.45392654018859
H          194.85270396267302        5.48090105809458        0.26407074428871
H          191.11441125949324        4.36058022456731       -1.11432898254301
H          189.30076975762731        2.45681858386224       -0.55783823081924
H          189.43266722926549       -2.65291489953495        0.64779371295710
H          191.32837806798389       -4.45990577863091        1.17249791086051
H          193.19974255800190       -0.78785594622479        0.25914858377166
H          195.12828301952973       -5.41132702809426       -0.35354926496380
H          195.19950337404364       -7.79226668303465        0.34425064843530
H          193.03060884615891       -6.81588787831157        3.90840701198318
H          192.97002853399957       -4.43228372064728        3.22108961076532
H          196.70300274887174       -4.25845419836932        1.37945995879675
H          198.50467618886478       -2.35313796797132        0.77598150356245
C           87.33521504408178        0.04408582793538       -0.02602386550078
C           88.55969047998703        0.05439532920288       -0.04482146009405
C           89.90140312810502        0.05829600156728       -0.06353985880248
C           91.13204179739536        0.05681488739819       -0.08356783358353
C           92.46884233494498        0.04899374800808       -0.10292410050816
C           93.69957357767696        0.03797727787941       -0.11788724369230
C           95.04103270415978        0.02672313148386       -0.12789952208542
C           96.26583654455585        0.01237485443746       -0.13193466597155
C          105.91296097180290        0.09861091140942        0.10760290622295
C          107.13697974703319        0.11822048688542        0.14977733767574
C          108.47748266420211        0.13885317316427        0.18005208236092
C          109.70831621365672        0.14885060860807        0.19836019883282
C          111.04459726273315        0.15072317034953        0.20489542118374
C          112.27546121047236        0.14291775444366        0.20008167247074
C          113.61615841583253        0.12657798868818        0.17862192728633
C          114.84049466114803        0.09982765036475        0.15096886996820
C          124.47022445041225       -0.22928307365002       -0.25048242808987
C          125.69474008047932       -0.24631338794796       -0.27486720630882
C          127.03546597535221       -0.25373503328974       -0.29171200188703
C          128.26635168823142       -0.24804100140649       -0.29575129613432
C          129.60240633673291       -0.23477030370921       -0.28809789275621
C          130.83306042654891       -0.21521104240590       -0.27091316042147
C          132.17346154134921       -0.19038078889109       -0.24728494263785
C          133.39770903090178       -0.16707921623562       -0.21648805810949
C          143.03470585289708       -0.20592859520087       -0.23414767379084
C          144.25875832077872       -0.23465230545639       -0.26759890283804
C          145.59905683334605       -0.25521132587145       -0.29959301157511
C          146.82970856954407       -0.26817145292785       -0.32173164879482
C          148.16579041075263       -0.27062401682431       -0.33464371926237
C          149.39671206519421       -0.26416014227067       -0.33568810930541
C          150.73732096586593       -0.24426790516822       -0.32177060154346
C          151.96164975774172       -0.22071102610520       -0.29493370903784
C          161.58717105608741        0.14707679340515        0.15821597293238
C          162.81131560214121        0.17227389040826        0.19393760765234
C          164.15194212625462        0.19169422379846        0.21763858370314
C          165.38284446546217        0.19820362383404        0.22402922135155
C          166.71906416380526        0.19083496501651        0.21917928553776
C          167.94977071498892        0.17395891694765        0.20126116619424
C          169.29014006613764        0.14439943470013        0.17201879119587
C          170.51397499489860        0.10549575481883        0.13769742614571
C          180.15852016269469       -0.16224282001381       -0.06941942098245
C          181.38332765383953       -0.16825810819909       -0.06045131234090
C          182.72489871386188       -0.16821443370806       -0.04866728172962
C          183.95564672138573       -0.16132014484060       -0.03508749446689
C          185.29255838451684       -0.14882332440353       -0.02120625965934
C          186.52312523837210       -0.13218424985725       -0.00780377814332
C          187.86485678975998       -0.11188799597533        0.00288483295301
C          189.08920734069909       -0.08740160579967        0.01009564436533
C           97.66979491961897        0.00461367126515       -0.12601051732156
C           98.30407759793049        1.00643807750989       -0.88611203827292
C           97.66052847160380        2.01734971056107       -1.64569255991665
C           98.62924418355031        2.76457785125989       -2.25797649876607
C           99.89304606904609        2.22568343531646       -1.89333858542451
N           99.64623041846340        1.17208875275654       -1.05555365292484
C          101.15803401809610        2.68711978577964       -2.28012750815402
C          101.18390986165822        3.81963897282325       -3.23516275555475
C          101.79106819277845        5.02875093319161       -2.88174276478636
C          101.81938814247040        6.08764556996567       -3.77071544149682
C          101.23933334370588        5.93534075848475       -5.02692849875801
N          101.26914501020529        7.04283595865144       -5.96586476375527
O          100.74948420283661        6.87735026858271       -7.03966055345785
O          101.81109516475719        8.05865859104601       -5.61283863606176
C          100.63083610699681        4.73997534331162       -5.39898863947173
C          100.60311893800187        3.68907278384320       -4.50050577864365
C          102.37852313590122        2.17093698833874       -1.84058931422764
C          103.67306888008230        2.63964955484087       -2.30282076793018
C          104.59910581449523        1.91255403946768       -1.64487616817884
N          102.53949952924255        1.16179895259660       -0.94133324762260
C          103.86880516608484        0.99297416039363       -0.79449693729262
C          104.51063931541628        0.07128741886826        0.05704951197315
C          103.87494067752677       -0.89373270205468        0.86214073698805
C          104.51493962154582       -1.81587878962872        1.72998931119412
C          103.54775067207473       -2.59676246883688        2.30110700845260
C          102.28894807872416       -2.17707353028277        1.79100637335779
N          102.53636433768847       -1.13808763002884        0.93513574312349
C          101.02661461717013       -2.69383846444272        2.10969515931981
C          101.00389372109764       -3.85436095225220        3.03056423566853
C          101.65031848452547       -5.04447517700959        2.68217235896258
C          101.63222854037760       -6.13121463402065        3.53720513711538
C          100.96648834938433       -6.02567171532368        4.75507621588601
N          100.94888778262002       -7.16222735711751        5.65903168788771
O          100.35720245059696       -7.03717251228567        6.70042224669891
O          101.52827323299533       -8.15935663140502        5.31203717951482
C          100.31877919134415       -4.84948132485412        5.12213549395947
C          100.33844012467783       -3.77035514091520        4.25755932354853
C           99.80729432169719       -2.20498629513618        1.63608885045706
C           98.51848594968075       -2.79809471393297        1.94595091846455
C           97.59082882592770       -2.03976501435198        1.32650369125720
C           98.31521714675476       -0.99583911219502        0.62839390627251
N           99.64327417265083       -1.12757269911525        0.82068991980556
H           96.59274992327789        2.15101011723023       -1.70787720505864
H           98.48252147380236        3.62045680057234       -2.89620775603341
H          100.36547702579858        0.60378259959398       -0.62078747026919
H          102.22818239580907        5.13881820421343       -1.89624223934000
H          102.28269311397855        7.02988292121703       -3.50385709665447
H          100.19055086420482        4.64528974717995       -6.38431711531929
H          100.14484948397039        2.74871038729502       -4.78397316328075
H          103.83117079474150        3.40908443185809       -3.04081371678172
H          105.67337452714625        1.96612997038408       -1.71780838343598
H          105.57911203831685       -1.86597398768837        1.89405198996200
H          103.69198414766808       -3.38590141658870        3.02070590367957
H          101.81954056625953       -0.62486453783094        0.43309221899485
H          102.15383893437385       -5.11911497048805        1.72533072684415
H          102.12460259629133       -7.05930450624469        3.27279349580213
H           99.81128661632786       -4.79164954894554        6.07752944756302
H           99.84948012252819       -2.84468766585205        4.53764083555306
H           98.36590141865398       -3.68161061635866        2.54411407747001
H           96.51955285452377       -2.16023540944337        1.31764823706160
C          116.24261681214729        0.05990480775689        0.10192928691030
C          116.86697575059242        1.04411125526827       -0.68913062446927
C          116.21710698999385        2.09150641791651       -1.39174647411044
C          117.17437997754772        2.81397192746936       -2.05002450801243
C          118.43604755122935        2.21914849065396       -1.77661486976786
N          118.20116875506254        1.16188055526961       -0.93973492008565
C          119.69112355062209        2.62878185308398       -2.24494501375340
C          119.70726104812216        3.78415549304756       -3.17213385747673
C          120.40662891316667        4.94736404326300       -2.83499882619393
C          120.42559897145833        6.03069919789697       -3.69415034357239
C          119.74261650762482        5.94940794860939       -4.90436832787664
N          119.76073063046138        7.08340333176096       -5.81154190376460
O          119.15075536140871        6.98035162010632       -6.84480870020526
O          120.38412659450915        8.05702402284705       -5.47444155849532
C          119.04246183753853        4.80022474128614       -5.26028510978419
C          119.02570855910589        3.72419973319707       -4.39165028067557
C          120.91173004865796        2.03949668312726       -1.90963946271673
C          122.18962719156335        2.44368932163274       -2.46865755211439
C          123.12232944301928        1.65417057193376       -1.89780380563332
N          121.08626013937727        1.00746338418230       -1.03942782147106
C          122.41152921893143        0.76399607587879       -1.00087826560339
C          123.06801968975370       -0.19548921066449       -0.20407672010307
C          122.44922302250404       -1.12709384798403        0.65192356326889
C          123.10843904639897       -2.07736052518887        1.47393974739929
C          122.15152225747819       -2.79740098301185        2.13519888057469
C          120.87930839153645       -2.31202967795856        1.72713042982985
N          121.11021269836421       -1.29742616345876        0.83800703972531
C          119.62129319172971       -2.75184985902939        2.15810194072058
C          119.60877655038273       -3.88973635139107        3.10701613168004
C          120.15522611412359       -5.12354738036357        2.74048436400516
C          120.14468242129971       -6.18756230795087        3.62387882822667
C          119.58818069912320       -6.01495022765152        4.88800498140567
N          119.57938338913054       -7.12761025439947        5.82142946529193
O          119.08399713259136       -6.94354879665602        6.90349520544805
O          120.06867173882027       -8.16555260018291        5.45594222466954
C          119.04083211023692       -4.79448238264481        5.27342466670012
C          119.05120038161627       -3.73862088017760        4.38050350697309
C          118.39597087906282       -2.20776960176906        1.76803104410071
C          117.10644232759873       -2.73444506250006        2.17844146482854
C          116.17310652930232       -1.95092653863981        1.60038121387610
C          116.89381536029242       -0.95356163789533        0.83347618371449
N          118.22468831446197       -1.13912248344333        0.94261864632525
H          115.15368952527399        2.26740595168243       -1.38364653392215
H          117.02139666518082        3.68744464931593       -2.66238047040640
H          118.92382087680956        0.55852200618818       -0.56145015236749
H          120.92381527757811        5.00263205847441       -1.88427144810789
H          120.95995672731964        6.93788104466197       -3.43889879882126
H          118.52323646908540        4.76028921092793       -6.21028638688600
H          118.49652469013147        2.81867177134279       -4.66477010806770
H          122.33127652948916        3.21534345512795       -3.20768768214874
H          124.18848873856558        1.64828572839856       -2.05749290624240
H          124.17826536506058       -2.18601549496624        1.54834859262853
H          122.31238947220162       -3.58729328615708        2.85041882227241
H          120.38237543623605       -0.74827437969504        0.39299166982684
H          120.57334067765029       -5.24988088457680        1.74859805667840
H          120.55945693898084       -7.14914465656482        3.34635876519625
H          118.61723266066844       -4.68491788365849        6.26449963486579
H          118.63961482519910       -2.77964971780170        4.67270940489003
H          116.95658785092478       -3.59632384938109        2.80805618105048
H          115.09943855650872       -2.02343921061157        1.66513345632376
C          134.80056117525280       -0.14323216847377       -0.18589099508852
C          135.42332306392527        0.87409241022946       -0.93509858752297
C          134.76760627750676        1.90397171991221       -1.65793791575169
C          135.72721089218695        2.68547861278758       -2.24107361524040
C          136.99702485194791        2.14300883402090       -1.90380812489049
N          136.76280597727828        1.05771499580427       -1.10329680834281
C          138.25776809947425        2.61351346856881       -2.29225059987050
C          138.28004764248269        3.80136086327574       -3.17730898004665
C          138.91884080080041        4.97330101517806       -2.75954532727626
C          138.94101929046053        6.09094125439247       -3.57336387892499
C          138.32339391272794        6.03530490102909       -4.81963190395066
N          138.34366791259322        7.20608379531074       -5.67880363983823
O          137.79195995140250        7.12379359514948       -6.74611146211692
O          138.91031467194907        8.18718563743623       -5.27070703071516
C          137.68669414810660        4.87727563996879       -5.25673013168567
C          137.66558462601944        3.76662307970172       -4.43278779623447
C          139.48059709385518        2.05224849139292       -1.91855657902673
C          140.76612135747962        2.50037723243795       -2.42386032799888
C          141.69728040126159        1.71036204904261       -1.85117319978024
N          139.65067008616614        1.00204583644457       -1.06977255437367
C          140.97909144933402        0.78348244959666       -0.99827058610268
C          141.63212506138274       -0.17526217311413       -0.19793648396756
C          141.00999579979316       -1.10357938593244        0.65952138211249
C          141.66654324219715       -2.01527002302211        1.52605842882708
C          140.70739015434410       -2.73286214557882        2.18690310090593
C          139.43686252778369       -2.29003115431852        1.72849999797142
N          139.67044464077102       -1.29667883844848        0.81623727583979
C          138.17615128710347       -2.75427260125233        2.12453154229009
C          138.15466347106789       -3.85147022103432        3.11977036802962
C          138.75992437109218       -5.08030325563417        2.83933863248805
C          138.73986545120084       -6.10259398503816        3.77067624042958
C          138.11350235399004       -5.89304103807540        4.99592380462568
N          138.09441289661075       -6.96148329515373        5.97947579057120
O          137.53688333550937       -6.74668693853186        7.02504568193089
O          138.63836598331582       -7.99598094178972        5.68925503827862
C          137.50510068471922       -4.67727595588096        5.29509481027123
C          137.52611763709422       -3.66357514745343        4.35494250883011
C          136.95272258825020       -2.27205747123596        1.65474853794038
C          135.66627348664341       -2.84662142349690        2.00639607633146
C          134.73463341294365       -2.12740732662826        1.34766179056186
C          135.45343289981059       -1.11633565209007        0.59705350710842
N          136.78254709479560       -1.23602852624076        0.78874609210122
H          133.69844057680399        2.03006094989213       -1.71148366018930
H          135.56948631933182        3.56448235048836       -2.84421542795597
H          137.48968580159595        0.48129137164256       -0.69242286495062
H          139.38548919657532        5.00712671719752       -1.78201985617090
H          139.42752358130821        7.00516532037701       -3.25527636595572
H          137.21893771821078        4.85781118752185       -6.23372768387638
H          137.18607620170098        2.85470371480302       -4.76900879289013
H          140.91312757928989        3.29730948765053       -3.13450932452993
H          142.76759879023083        1.73044039962308       -1.97853425363194
H          142.73601362766999       -2.09821666976859        1.63205370539799
H          140.86595149930730       -3.49517207820087        2.93191651888776
H          138.94315531412695       -0.77808842158661        0.33504128215602
H          139.23135934169198       -5.23735963187244        1.87619137701911
H          139.20054312871312       -7.06023396194489        3.55996084850648
H          137.02657022817914       -4.53841406278923        6.25707081422604
H          137.06667546289526       -2.70817851652908        4.57986484512430
H          135.51886834068284       -3.69635713257197        2.65289145458266
H          133.66357657144522       -2.25001474605827        1.35042834003181
C          153.36348341678757       -0.17705536579692       -0.24580183249792
C          153.98238051526550        0.84501162096279       -0.99134898503263
C          153.32349052085576        1.83209271073064       -1.76905705288248
C          154.28042014511018        2.62368482594202       -2.34270463188199
C          155.55236672769854        2.13505429780819       -1.93772339091728
N          155.32120286206421        1.06607726677656       -1.11484678775475
C          156.81023668820197        2.64799332016105       -2.27893159491634
C          156.82343781309987        3.79802320116091       -3.21306025812401
C          157.37386045613724        5.02096808597747       -2.81690836050866
C          157.38490060831109        6.10014554963985       -3.68150135352464
C          156.84545981705062        5.95421483447376       -4.95640918846799
N          156.85508572884245        7.08401396781742       -5.86900525296052
O          156.37264008806105        6.92281024536002       -6.96059855802513
O          157.34418242768524        8.11251026478804       -5.47769215148035
C          156.29611604502946        4.74460698144007       -5.37183376460092
C          156.28482229557201        3.67321396781890       -4.49741916990512
C          158.03482666179386        2.16560462910697       -1.81282886312367
C          159.32483606023141        2.67497018357184       -2.24307681338696
C          160.25720064298807        1.96052130762604       -1.58019559393548
N          158.20498942705149        1.15052966937168       -0.92214355523841
C          159.53546233683923        1.01290879316685       -0.75349223397301
C          160.18543132890366        0.10205331325694        0.10335222701506
C          159.56042153326015       -0.86628815342716        0.91325756246125
C          160.20889367947223       -1.75513744624825        1.80906862023129
C          159.25157811392791       -2.54438022392219        2.38553582638152
C          157.99136925867060       -2.16649580884013        1.84753332284082
N          158.22696874230041       -1.14026680157971        0.97306511718195
C          156.73677970006608       -2.71039021787174        2.15174756834001
C          156.71989584456784       -3.84340459576100        3.10612181785128
C          157.40808618325823       -5.02547051022734        2.81551192265390
C          157.39071296627512       -6.08576996103571        3.70325992870791
C          156.68320771865007       -5.96162291352460        4.89554346407671
N          156.66439851293634       -7.07094191053933        5.83271967671538
O          156.03475195293339       -6.93092943822825        6.84964814335225
O          157.28025598509112       -8.06223129644385        5.53541374801619
C          155.99353835210579       -4.79281195314184        5.20528295482103
C          156.01320777047923       -3.74039306875992        4.30853607786718
C          155.51736943140332       -2.27275174170096        1.63109307049723
C          154.24036355967704       -2.90440524200500        1.91243758464275
C          153.30866290482874       -2.19576007014600        1.24242653539802
C          154.01928010325437       -1.14122759482278        0.54591955639037
N          155.34349460181917       -1.22058634669191        0.78518769935173
H          152.25382861078577        1.92158711568869       -1.86748313635227
H          154.11966471990993        3.47705985514053       -2.98087140924460
H          156.04870656767454        0.52666288304223       -0.65754434530945
H          157.77928955154843        5.12513677561354       -1.81731415173356
H          157.80300133600460        7.05338275722577       -3.38116446072282
H          155.88742049168852        4.65535236224450       -6.37118248186473
H          155.87230836244115        2.72241897214533       -4.81434446280920
H          159.47577005390323        3.45941592881850       -2.96665618936209
H          161.33086954354525        2.04235066456639       -1.63265406149175
H          161.27141232856334       -1.77677191527742        1.98920780676890
H          159.40353582429856       -3.31318332555625        3.12525983033558
H          157.50525152578493       -0.65574536120449        0.44987189296457
H          157.94303033770478       -5.11618738235707        1.87731294573207
H          157.91508083986824       -7.00794871846374        3.48344539954086
H          155.45351554617622       -4.71996537694970        6.14162719379049
H          155.49080500487068       -2.82045731388344        4.54355194973178
H          154.09867761350253       -3.77893518094950        2.52627969161175
H          152.24337436119879       -2.35563793416432        1.19963989843749
C          171.91587484755087        0.05606840040035        0.09219441368906
C          172.55021626142977        1.03213983904386       -0.70053155207292
C          171.90929868132889        2.06631323158246       -1.43048733685997
C          172.87499943418203        2.77679866867462       -2.08927565354880
C          174.13373482145502        2.19029726760661       -1.78504554138536
N          173.88784776573314        1.14739468075162       -0.93351905352550
C          175.39486713860092        2.60190310711981       -2.23470520610481
C          175.41506647834501        3.73325751593005       -3.19133602131207
C          176.08257711648815        4.91944058627167       -2.87090578720010
C          176.09999991162815        5.97861553720512       -3.75992136728227
C          175.44789340499631        5.84958188329036       -4.98294035773375
N          175.46345986401226        6.95837471391225       -5.92079797440033
O          174.88119926053872        6.81328206301041       -6.96499427597591
O          176.05715832302266        7.95460844708865       -5.59649999818997
C          174.77973049717380        4.67664275395010       -5.32253201104722
C          174.76392868671445        3.62538208424383       -4.42423087273633
C          176.61471865231042        2.03784183304888       -1.85555660195731
C          177.90230468711923        2.45832836940647       -2.37917643690886
C          178.83075253687741        1.69560795684846       -1.76637889147069
N          176.78016102052322        1.02082848151775       -0.96621157101883
C          178.10797743846032        0.80157535598472       -0.88306808506654
C          178.75449394860280       -0.14705163668975       -0.06543665665042
C          178.12181006027041       -1.09448288840238        0.76265028192391
C          178.76726131390313       -2.04891590167752        1.59067797155320
C          177.79960831469404       -2.79163305844450        2.20999013086792
C          176.53443613213702       -2.31455989460266        1.77141902856395
N          176.77965923045119       -1.28345367808537        0.90560820659264
C          175.27009719243500       -2.77389533624517        2.16254612808418
C          175.24518721073653       -3.93310167964404        3.08512759904073
C          175.80831640226421       -5.15395588189645        2.70076237980614
C          175.78195635308595       -6.24076881527407        3.55554953170387
C          175.19271903490878       -6.10427777085586        4.80924441379784
N          175.16492088512882       -7.24161783612226        5.71188263439365
O          174.64080031347351       -7.08879574509170        6.78529575244586
O          175.66865426441041       -8.26736283991275        5.33174948109602
C          174.63014240287373       -4.89669739179175        5.21295388010481
C          174.65683086496460       -3.81770195578963        4.34846212121135
C          174.04926667500359       -2.23038259371257        1.75836336045982
C          172.75478774076032       -2.76571928024113        2.14165519935441
C          171.82837903511867       -1.97158736254076        1.56703376301776
C          172.55821773924384       -0.96280689511295        0.82416143913755
N          173.88759108403082       -1.14920841973315        0.94732185913515
H          170.84558980242656        2.24036851892503       -1.44128591394819
H          172.72992361684854        3.63798044507794       -2.72069023903542
H          174.60506997096363        0.55165464263703       -0.53354915610169
H          176.57500671453960        5.01242557457850       -1.91005006518265
H          176.60919541662517        6.90372980392997       -3.51793207455818
H          174.28374949078446        4.59958603598764       -6.28261476008052
H          174.25848581049033        2.70219438088697       -4.68289719633870
H          178.05361027146637        3.22309433670510       -3.12343073312436
H          179.90152948471166        1.70861631085542       -1.89088360006650
H          179.83557997311374       -2.14576181495599        1.69645406796316
H          177.94809064792111       -3.59122344069720        2.91709293816871
H          176.05940391243149       -0.73631240513508        0.44606050556399
H          176.25169294375539       -5.25203061605442        1.71667124803061
H          176.20871966432063       -7.19271779408134        3.26339118669231
H          174.18154959018014       -4.81520733567660        6.19570407620411
H          174.23328492343438       -2.86866096345308        4.65559618740408
H          172.59686699681725       -3.63876552594355        2.75363231666925
H          170.75401089396547       -2.04575986081894        1.61674295382199
