238
 energy: -390.751574305158 gnorm: 0.000567853435 xtb: 6.5.1 (b24c23e)
C           39.54395554089321       -0.07430024337274        0.03562846103808
C           40.15638123245064       -1.15613778006226        0.65492477931149
C           39.50798088256230       -2.27157253240657        1.25597311781552
C           40.47234902398149       -3.10069243087292        1.75566904496434
C           41.74144233255235       -2.51414969896489        1.48382953102262
N           41.49985820022777       -1.34947090847862        0.81172061970590
C           43.00531837751912       -3.01920578385142        1.80819202586126
C           44.21890530735821       -2.41382075178864        1.47278923583059
C           45.51834029335827       -2.93034678066550        1.86440852001276
C           46.43583773078224       -2.08022564946712        1.35926117105495
N           44.36875177716065       -1.26256059590649        0.76237739947060
C           45.69592238977251       -1.03975809189094        0.67111999266608
C           46.32754834626142        0.03879351384073        0.02176151053633
C           45.69055844416084        1.11361691571268       -0.62442916842040
C           46.33323491138309        2.18427473452706       -1.30146541066636
C           45.36476443654140        3.01325820170882       -1.79547834398053
C           44.09904459673869        2.47837243260375       -1.42672343802972
C           42.83589532481484        2.99571331407609       -1.73213254239040
C           42.80091030183939        4.27111963480807       -2.48880384869889
C           42.20113556760047        4.32972396468644       -3.74771728011185
C           42.17389924740198        5.52103528244606       -4.45689821913198
C           42.73992257823381        6.66817927620639       -3.91742990109381
C           43.33589863512368        6.61896717358892       -2.66458559206623
C           43.36947513256356        5.42830552684010       -1.95438935391163
C           41.62151006813856        2.39870286746868       -1.37784736586587
C           40.31483739366552        2.97515618945648       -1.65426173936271
C           39.40418118033865        2.11237251837155       -1.16023519665396
C           40.15324087105471        1.01515680787256       -0.57323177715306
N           41.48469559380469        1.22534911038869       -0.71571367222200
N           44.34818026894354        1.32748035783004       -0.72672379074799
C           43.03969690139827       -4.29265833776823        2.56924076355199
C           42.45877015115763       -4.37484668291093        3.83554191747312
C           42.49515905045487       -5.56397084391517        4.54822967256375
C           43.10624354815126       -6.68548259674387        4.00423726595500
C           43.68320763174647       -6.61280733468136        2.74361169764214
C           43.65280362899379       -5.42431191493121        2.02976687417276
H           38.45863844604176       -0.08911626914350        0.03389444325285
H           38.43932044645917       -2.41208063184169        1.28966261029310
H           40.32443810581932       -4.04136285039269        2.26092467840293
H           42.22347906397034       -0.72324751317556        0.47486607302668
H           45.68389705515621       -3.81536876810786        2.45709327067083
H           47.51022835424325       -2.12450531305911        1.43940477220505
H           47.40142209456721        2.29336506027854       -1.39849755450698
H           45.51049097689228        3.91096728024458       -2.37386728547412
H           41.77077273826477        3.43170639489442       -4.17670354825358
H           41.70991404062078        5.55337303131684       -5.43649170284000
H           42.71656407187877        7.59916611067265       -4.47241896180775
H           43.77623384710254        7.51289896201266       -2.23689396497368
H           43.82287033903509        5.39572747002250       -0.96984328694797
H           40.14333072991771        3.91852766522868       -2.14728033120901
H           38.32801785853052        2.18744853356047       -1.16882963696284
H           43.62702716778782        0.72001371121974       -0.35178878119436
H           41.99406019960100       -3.49597338421531        4.26872064617282
H           42.04588051756149       -5.61419599045432        5.53391486690130
H           43.13307096995184       -7.61468496284221        4.56205562059416
H           44.15913187944651       -7.48685803394111        2.31303360004633
H           44.09276485466386       -5.37296458062092        1.04009678080306
C           86.63817204057698        0.05394240166595       -0.06160089861061
C           86.02095904945671        1.08487674505146       -0.75825526436892
C           86.66386050933131        2.11318613771298       -1.50328544987222
C           85.69605675702117        2.93129012835236       -2.01450431455020
C           84.43044155751666        2.43530270322254       -1.58943031992919
N           84.67716611351059        1.31584741944058       -0.84600906295177
C           83.16471823843719        2.96126780511049       -1.87096804143157
C           81.95498179842831        2.39927587697281       -1.45517118590114
C           80.65541207883508        2.99810686838565       -1.70220029146045
C           79.74119583852973        2.16120780253220       -1.16943670150003
N           81.80920267391822        1.23594797924372       -0.76379853722991
C           80.48354070857968        1.05853468812651       -0.58957141227709
C           79.85526313260620       -0.03630509925206        0.03595892989046
C           80.49731596715023       -1.11807349530184        0.66568340113994
C           79.86063868024054       -2.22552478847202        1.28669146138984
C           80.83268301840457       -3.03133052785630        1.81140853744317
C           82.09430103296907       -2.43600492200071        1.53229000439867
C           83.35890461559244       -2.92055276936883        1.88271995440494
C           83.39716589727516       -4.16312253646131        2.69171308621004
C           84.02906471958438       -5.30804120472577        2.20409614345106
C           84.06010424443986       -6.46869676393994        2.96234050201451
C           83.46595827498871       -6.49994044263325        4.21668476613085
C           82.83723652999414       -5.36472218686069        4.70991444217063
C           82.79963295628264       -4.20372224111711        3.95253453971672
C           84.57065798382226       -2.31929274613214        1.52663426137027
C           85.87863394104500       -2.80635738827654        1.93654031531016
C           86.78594871485200       -1.97523996199165        1.38528511781117
C           86.03330436782969       -0.97337534698555        0.65092822313016
N           84.70300949825710       -1.20588574320915        0.76714315820754
N           81.83984848383143       -1.28883926236656        0.82828122121451
C           83.12239704372509        4.20763326221676       -2.67466824440210
C           83.73375789076758        5.37315538725558       -2.21056348922367
C           83.69139595714668        6.53583774672214       -2.96540563198270
C           83.04355972060701        6.54829366948948       -4.19309006892359
C           82.43500544360431        5.39235067493671       -4.66293227167922
C           82.47152748998886        4.22908345662525       -3.90918614787640
H           87.72342020696506        0.06142079826819       -0.07924655513415
H           87.73129635668678        2.20074101451866       -1.62907106716384
H           85.83979198340127        3.79848124012025       -2.63848363751309
H           83.95668878805526        0.73999216549253       -0.42347364444562
H           80.48793455131792        3.93806171720784       -2.20262323006932
H           78.66774561144081        2.26151364581651       -1.15013211180467
H           78.79388586756792       -2.37818589482652        1.31998757419746
H           80.69241763058687       -3.96153843551166        2.33747247317183
H           84.48156898907347       -5.29007300140205        1.21891469094793
H           84.54943064735671       -7.35379712705634        2.57108152234980
H           83.49277489341334       -7.40752124473432        4.80903360199434
H           82.37454959448642       -5.38246326105962        5.69049580510224
H           82.32033851770292       -3.31398634799229        4.34579932860210
H           86.05324014079955       -3.66120017567014        2.56993609350498
H           87.86185728450914       -2.00515951959162        1.45855443175080
H           82.55752747877150       -0.66229067697794        0.47899012074069
H           84.22716070544946        5.37045109044437       -1.24490076529718
H           84.16516523091536        7.43694525524716       -2.59202418213818
H           83.01263176132797        7.45754006709922       -4.78266424430263
H           81.92987288487069        5.39596410804249       -5.62243463504071
H           82.00709279701282        3.32371506651841       -4.28364554733086
C           48.95750059367614        0.06615796544814        0.00062526112227
C           47.73621968394854        0.05526330678825        0.01171611810595
C           50.30872937743216        0.07150939726179       -0.01044545962370
C           51.53015841482640        0.06784050630381       -0.02278709095000
C           62.41869996448107        0.00989884244577       -0.02036225313197
C           61.19615807980189        0.02732507336268       -0.01989908731818
C           63.76687130753414       -0.00412920366808       -0.02065669492040
C           64.98944672691007       -0.02002826855554       -0.02349448476973
C           75.87517154126500       -0.09521757697160        0.02121885465614
C           74.65357692473822       -0.09576709500225        0.00714754637500
C           77.22593944276349       -0.08301909478680        0.03163812843389
C           78.44730750022380       -0.06176077581739        0.03824040716767
C           52.93800805941726        0.06694081244302       -0.03083697109406
C           53.56549799595826        1.23378910471011        0.44331617515571
C           52.91811160566233        2.39060040180912        0.94998548454120
C           53.88406032410074        3.29195084814643        1.30522778132750
C           55.15040509241006        2.71375698804172        1.01766726661596
N           54.90708262345267        1.46777719555950        0.50469975105042
C           56.41088751539078        3.28366081198453        1.23320314764927
C           57.63440891463540        2.66404156442796        0.97636048711160
C           58.92226119444505        3.30829231995455        1.16194350117095
C           59.85772190074284        2.40107770936089        0.81237235112096
N           57.80891188628086        1.39778074767958        0.50575173174791
C           59.13959339025088        1.20916339649308        0.40595048145301
C           59.79194897931547        0.03599526283505       -0.02465213596626
C           59.16254338936669       -1.14315382000908       -0.46847209284128
C           59.80949215809541       -2.33645191474908       -0.88187076232236
C           58.84348966606291       -3.23416530531693       -1.24623681934482
C           57.57788915330842       -2.61067825521723       -1.07264959143658
C           56.31807000712208       -3.16825415763653       -1.31954295207184
C           56.30274993366825       -4.54491793518348       -1.87520994978603
C           56.87138411387635       -4.80989722030358       -3.12172320994414
C           56.85284192888624       -6.09545346710172       -3.64161535758295
C           56.27352896800855       -7.13129410760061       -2.92149203914652
C           55.70954483136565       -6.87618908311538       -1.67882410172780
C           55.72066179834783       -5.59094539167866       -1.15820298933393
C           55.09430366500254       -2.53808455837506       -1.08780232572802
C           53.80665689040565       -3.13160458714895       -1.40141175416560
C           52.87117396031216       -2.23173491635493       -1.03418068197712
C           53.58871899345147       -1.08645784412866       -0.50931412056394
N           54.92052811037178       -1.29515634216856       -0.56106316936812
N           57.82177016861874       -1.35149299347134       -0.59256530626502
C           56.42783978811359        4.66199462733722        1.78504147745118
C           55.87111992907694        5.72077334591084        1.06674910980990
C           55.89173092569945        7.00690047856157        1.58542144086184
C           56.46112788425362        7.24971299057762        2.82801278051386
C           57.01378779063099        6.20070522127155        3.55017929842594
C           57.00070817900914        4.91447326916456        3.03224159531647
H           51.84968212868172        2.50711065836323        1.03431052709411
H           53.73504967425568        4.26792494363057        1.73751502469280
H           55.62776430071954        0.81145476422518        0.22349363327137
H           59.06830694175484        4.32125388986300        1.50043569576570
H           60.93097653843358        2.50557401678112        0.81315059515640
H           60.87756762017259       -2.48250226947282       -0.89098232002878
H           58.99159958497671       -4.24300144427673       -1.59531979063063
H           57.31312813471888       -3.99951726032156       -3.69104075233496
H           57.29174436099805       -6.28862132998969       -4.61423275008562
H           56.26142003784532       -8.13612297826158       -3.32823818008173
H           55.25889795487481       -7.68268521757497       -1.11107738777608
H           55.28997570460629       -5.39502339688965       -0.18261562934155
H           53.66108407359152       -4.09947207360982       -1.85308643206976
H           51.79818904997251       -2.30651892876546       -1.11016766873954
H           57.10147638258669       -0.67669914785184       -0.35790515418085
H           55.43715293741654        5.53531636755066        0.09040032219511
H           55.46213664411661        7.82351938759178        1.01573114844641
H           56.47437556946840        8.25525300298534        3.23298360562313
H           57.45706395021914        6.38455678666369        4.52264665090424
H           57.42292456446641        4.09402920980977        3.60167130960986
C           66.39358046496723       -0.02942052568854       -0.02635495557405
C           67.02641786380593        1.12416500290082        0.47603440137372
C           66.38357232275739        2.27045084791726        1.01087024449554
C           67.35230142722753        3.17061739646670        1.36204588800865
C           68.61531372871956        2.60207115725224        1.04270075159863
N           68.36752462377855        1.36021118363910        0.52119257913803
C           69.87665474767748        3.18063997813141        1.22543410255479
C           71.09731596317245        2.56581667527744        0.94162408544102
C           72.38516789152658        3.22132028624426        1.08313525438175
C           73.31812977339058        2.30969790806863        0.73883278180794
N           71.26779423436875        1.29101044747401        0.49628141551762
C           72.59854467055587        1.10355926692951        0.37949139167706
C           73.24646428550845       -0.08601896617633       -0.00615678125704
C           72.61428218870114       -1.27565945487861       -0.41324698859320
C           73.25595137172164       -2.48305398010651       -0.79279684887226
C           72.28741230478292       -3.37634614774272       -1.16184514487197
C           71.02555168077045       -2.73660445552118       -1.02436061743561
C           69.76484425217276       -3.28030046955112       -1.29985350810682
C           69.74551932876358       -4.65652225036467       -1.85601945066904
C           70.34981765392502       -4.93086385280918       -3.08366551873792
C           70.32503666034449       -6.21535444430636       -3.60585827530515
C           69.70373806099155       -7.24127265826540       -2.90679077154521
C           69.10428919943038       -6.97717859564300       -1.68274466437814
C           69.12164117429846       -5.69281227495332       -1.16014175639082
C           68.54401717972635       -2.63570823136787       -1.09687991126371
C           67.25664155947456       -3.21063597855135       -1.44365979770405
C           66.32365750821964       -2.30518391495756       -1.08290915203534
C           67.04313754671193       -1.17546861990602       -0.52845151142378
N           68.37235219608084       -1.39547921294980       -0.56040963136196
N           71.27320483006697       -1.47393149539969       -0.55652080915639
C           69.89877489476359        4.56167373236697        1.76901838062357
C           69.30520910790825        5.61027015530283        1.06513136452212
C           69.32956123175384        6.89947631600351        1.57570644119892
C           69.93956255549941        7.15566709808658        2.79614125503585
C           70.52931443161081        6.11702714628670        3.50386143612961
C           70.51265147948064        4.82773963791037        2.99373612636148
H           65.31630487132696        2.38170100721830        1.11461406052100
H           67.20747134069101        4.13963555173561        1.81101887483647
H           69.08553949391862        0.71089043837352        0.21781640117724
H           72.53221485630327        4.24387074223614        1.39094732092179
H           74.39047963433045        2.41979512039453        0.71478275948129
H           74.32247358711746       -2.64002310644971       -0.77996420660529
H           72.43152764728885       -4.39197908922959       -1.49256249943100
H           70.82410652890165       -4.12814582479306       -3.63744629416001
H           70.79166732522188       -6.41553779315513       -4.56405599981783
H           69.68655589521526       -8.24520450542482       -3.31559559712357
H           68.62059545168842       -7.77579620713265       -1.13121841301593
H           68.66272852970266       -5.49026219800272       -0.19888688955433
H           67.10915927536571       -4.17087241394233       -1.91075175239464
H           65.25151377750140       -2.36746123255495       -1.17993283557393
H           70.55601280289955       -0.78734433833735       -0.34808987399255
H           68.83954600801772        5.41431364213267        0.10558901939895
H           68.87096288059418        7.70789658210828        1.01705755496947
H           69.95563969925678        8.16353178797571        3.19515502513786
H           71.00434266077315        6.31157518911234        4.45904400534641
H           70.96367136431263        4.01531809266321        3.55251828968379
