226
 energy: -402.822686285087 gnorm: 0.000573516729 xtb: 6.5.1 (b24c23e)
Fe          37.13847985052784       -0.00752729463852       -0.01340439111513
C           33.75118678628265       -0.02802788688781       -0.03266814134067
C           34.40323189271672       -1.24246607104549        0.02723184743471
C           33.72788308477722       -2.50390310016855        0.08396450147105
C           34.68263763657070       -3.44793654398198        0.25630695848937
C           35.94185178465124       -2.76183488818572        0.29936207568594
N           35.75838121107979       -1.41574162458743        0.13372008671432
C           37.15327709816636       -3.37906448458447        0.59157671141139
C           37.15787297655602       -4.83937423826290        0.84593279743573
C           37.46873906624692       -5.35586681376892        2.10257170854100
C           37.45692479843824       -6.72945646241620        2.28875867878666
N           37.16599373664185       -7.58947627690043        1.31819378138498
C           36.87097791026656       -7.10437752927529        0.11649739397549
C           36.85096326956003       -5.74758113654874       -0.16602536301671
C           38.35597680449727       -2.69084547253270        0.65521493467504
C           39.61742213969389       -3.30680573882036        0.94321013532906
C           40.56473620432300       -2.35214083199587        0.78217325685377
N           38.53483528660510       -1.36426053774821        0.34116786321892
C           39.88157495530323       -1.15924018250524        0.38901636366617
C           40.54487554611141        0.01081314810098       -0.00011350873655
C           39.87101337391712        1.17514122931681       -0.38760303677115
C           40.54008876203035        2.36635340153337       -0.80850038846478
C           39.58346262430835        3.31188844977658       -0.97084772141207
C           38.33261811241599        2.69506203424850       -0.64188108498430
N           38.52325098346722        1.37084961457674       -0.32712297649044
C           37.12000449568697        3.36879334928872       -0.60413260253385
C           37.11301205130873        4.82827073188788       -0.85345872336384
C           36.41453134048585        5.37775964837281       -1.92787126869246
C           36.44036893652249        6.75025032007742       -2.11893509839583
N           37.09951942685425        7.58094133249901       -1.31765715043692
C           37.76588746765838        7.06537848565289       -0.28967447486238
C           37.80520803531164        5.70645756722217       -0.02034586085087
C           35.91080351235410        2.73202138180401       -0.34481709870604
C           34.64754850051192        3.40699789233512       -0.26369801764360
C           33.70182378200879        2.45026778972029       -0.11094710191822
C           34.38894636052216        1.19431100180258       -0.08532775228757
N           35.74216633433704        1.38282507666220       -0.19028912773222
H           32.66702807016182       -0.03457691643201       -0.03321402769629
H           32.65915887900420       -2.62910702683950        0.01233557279363
H           34.55733250217958       -4.51323080411081        0.36250965074085
H           37.70201610118563       -4.69131009629526        2.92582891530522
H           37.69126426180386       -7.15659159184614        3.25943273650206
H           36.63996020646804       -7.83217709237825       -0.65584539725447
H           36.61428441446918       -5.39684908683072       -1.16342805394228
H           39.75198824299555       -4.34064972844373        1.21634199877843
H           41.63298675702205       -2.43647834358524        0.90062201073700
H           41.60492398017684        2.45347307159596       -0.95297282735051
H           39.70288819268582        4.33467629784357       -1.28904079537513
H           35.87240577744421        4.73762228471258       -2.61359166602642
H           35.90820496264026        7.20140586746882       -2.95129816917354
H           38.29239578082820        7.76963565216253        0.34781436071118
H           38.35297726996993        5.33137044426185        0.83592032983851
H           34.51477665217710        4.47541513621380       -0.31568040022454
H           32.63323916789121        2.56489492182083       -0.02169253514869
Fe          77.40370864690881        0.04363966787660       -0.01811144765212
C           80.79484751719421        0.05714469770931       -0.05984690716443
C           80.14411111816732        1.26187649741029       -0.22735830711912
C           80.82217781679782        2.51323522789254       -0.38408661052334
C           79.86582273498102        3.44957651686795       -0.58673723951242
C           78.60523846075212        2.76519535405244       -0.56637505723603
N           78.78721682758072        1.43305001730426       -0.31219728205182
C           77.38287776335808        3.38257910407440       -0.80937897977696
C           77.37344504959759        4.82513232022830       -1.14539768843837
C           76.73857844587835        5.75410485884686       -0.32208428699085
C           76.75914323961476        7.09418699730258       -0.67510460023450
N           77.35441366437617        7.54424099385492       -1.77492017449166
C           77.95851831061876        6.66444302416249       -2.56704743408265
C           77.99793430464395        5.30587535906788       -2.29545759071204
C           76.17210731755011        2.70806280501870       -0.75397056195206
C           74.90786390786921        3.31019055126415       -1.05793760103688
C           73.96219693245423        2.36682152310311       -0.83329443053903
N           75.99868693617098        1.39581958011964       -0.38242720115884
C           74.65149641104317        1.19166117039906       -0.39997471381573
C           73.99241347096878        0.02470507166090        0.00638514367309
C           74.66908322562089       -1.13241439149640        0.41194731569684
C           73.99600134609828       -2.32322660233839        0.82799783364187
C           74.95505999259443       -3.25351989158519        1.04911585100628
C           76.21282508895295       -2.62415888592338        0.77392697430328
N           76.01930040473981       -1.31545680073107        0.39841727210585
C           77.43003402509845       -3.28825743243807        0.79739558997236
C           77.44348486180239       -4.72859484477205        1.14758610151662
C           77.80922224051628       -5.69508876011112        0.21206574979253
C           77.80338771589804       -7.03025440479738        0.58422442755803
N           77.46837474881558       -7.44079827270918        1.80305118747950
C           77.12135929419502       -6.52480198921937        2.70126453574073
C           77.09093666274735       -5.16727321223963        2.42273893917838
C           78.63975581276567       -2.66703131559496        0.50647544309717
C           79.91026073854432       -3.33179095772230        0.55207020297499
C           80.85298456870338       -2.39089628131916        0.31116049678318
C           80.15838433210024       -1.15247162636520        0.12621899107393
N           78.80461781605594       -1.33678376263593        0.23128037067512
H           81.87902291069786        0.06232616894101       -0.06814425878636
H           81.89227652784008        2.63887366706497       -0.33895476472494
H           79.98924474381718        4.51019008725853       -0.73390504347810
H           76.24929946114179        5.43303498793319        0.58972428740064
H           76.27659723330602        7.83755441763040       -0.04732801104735
H           78.43294066309480        7.06263431272280       -3.45919811880180
H           78.49343161260903        4.62344179239640       -2.97562923890487
H           74.77283241054012        4.32181549373974       -1.40420835999199
H           72.89281461494998        2.44479822963413       -0.94555152631428
H           72.92667305328453       -2.42222022045481        0.92275438486311
H           74.83162346194595       -4.27894645786500        1.35685314001577
H           78.08033287132847       -5.40639047437332       -0.79639243698716
H           78.07987730027840       -7.80257024452860       -0.12757141026162
H           76.85508284875662       -6.89151148790265        3.68826643591916
H           76.81079486378455       -4.45465646721405        3.18922612974725
H           80.05014918430516       -4.38058463638333        0.75758526271106
H           81.92478019593806       -2.50291880969195        0.27024369846923
C           43.17005327222438        0.01705396624522       -0.00756209897904
C           41.94635584195080        0.01513098230839       -0.00490020711634
C           44.51657391359930        0.01487725149983       -0.01686586882297
C           45.74043160222556        0.01012270384460       -0.02182192579490
C           56.60660542296435        0.01955670472062       -0.02448931931920
C           55.38158619595195        0.02416065072758       -0.01778914002489
C           57.95076086216324        0.01257310991680       -0.03195628634109
C           59.17573717933466        0.00396034422355       -0.03916042242510
C           70.02227165896525        0.01034278316243       -0.00377694687647
C           68.79788277262244        0.00972378497824       -0.01286573514270
C           71.36781622098086        0.01383950403141        0.00037903669718
C           72.59203165498292        0.01527493842760        0.00417358305118
Fe          50.56221907471751        0.00526077726318       -0.03217035007249
C           47.14124217951839        0.00706824976639       -0.02628960901045
C           47.81061269233514       -0.85381408624397        0.85217574245212
C           47.13025045310432       -1.71050487249999        1.77134764338842
C           48.08565800488281       -2.42520732656834        2.41349641013181
C           49.34444977237136       -2.00449170863424        1.87611373753272
N           49.16082209454402       -1.02151716970074        0.93516505014582
C           50.56562529873601       -2.54262682943676        2.26250389393053
C           50.56435492154823       -3.64670517010120        3.25090813454214
C           49.98406518666881       -4.87931611330200        2.95556883044834
C           50.00975304630555       -5.88295883669741        3.91120554170453
N           50.55918154709281       -5.72614486168663        5.11110163730078
C           51.11112220779858       -4.55259654519399        5.40138724701684
C           51.14194520018695       -3.49147933484531        4.51006258963759
C           51.78539153225383       -2.09797274187494        1.77224263999328
C           53.04688948807952       -2.66721721662581        2.14070445974773
C           54.00034968704603       -1.94436364081175        1.50513519434125
N           51.96717621338684       -1.05565927665451        0.89518695533694
C           53.31616053145122       -0.94546123303777        0.74581160201077
C           53.98329517100265        0.02230510172298       -0.01759227531155
C           53.31235678922992        0.98206387121148       -0.78775718077567
C           53.99250021463320        1.98384847715174       -1.54686085873954
C           53.03762492473987        2.68645517123967       -2.20276992759670
C           51.77937235271391        2.10281684558666       -1.84581979884476
N           51.96386844042475        1.07299739288447       -0.95488815498879
C           50.56007884262202        2.52680434510120       -2.35599382251984
C           50.56023835996405        3.61039727536856       -3.36649067266451
C           51.16288859916056        3.43564914172535       -4.61141188017375
C           51.13490481013180        4.47640970504247       -5.52639094089862
N           50.56210679170106        5.64839418521612       -5.27238097450659
C           49.98853606474272        5.82389708607363       -4.08647296842382
C           49.95887211271526        4.84145431079407       -3.10911345353575
C           49.34000851902535        1.98885140118564       -1.96577375103795
C           48.07974288344585        2.40088166446964       -2.50654380383246
C           47.12558174224254        1.70237542349132       -1.84497923339998
C           47.80830824749405        0.85977563681589       -0.91465902145055
N           49.15834230848228        1.02261600008584       -1.00703801380877
H           46.06051252125730       -1.74800352146506        1.89906598462552
H           47.95951521220940       -3.16586666776379        3.18605159776677
H           49.53254038634791       -5.05375255907949        1.98630072644273
H           49.56924625617683       -6.85367887567610        3.70364344858176
H           51.54900836694827       -4.45511441337543        6.39042635625723
H           51.59468504168185       -2.54858516022132        4.79251300299863
H           53.17599232740829       -3.51289769628483        2.79608640204615
H           55.07103419769790       -2.06593432296243        1.53645614736962
H           55.06159382454560        2.12116301630144       -1.56393510202530
H           53.16362540699323        3.52815397815581       -2.86385525836747
H           51.63306355494120        2.49296386090515       -4.86457135985197
H           51.59281463337170        4.36331783925011       -6.50463648594925
H           49.53152300132888        6.79287350605999       -3.90856711937285
H           49.48851360866031        5.03185743631786       -2.15188305144310
H           47.95120200261176        3.12593409038266       -3.29334627352872
H           46.05535060853968        1.74009941233446       -1.96844054928426
Fe          63.98624455211460       -0.00162313583464       -0.03558789453835
C           60.57356080170949       -0.00198390624016       -0.04220451429261
C           61.24340988933775       -0.83804860681575        0.86248995453802
C           60.57052851759868       -1.66299018430500        1.81582097282618
C           61.52499361128229       -2.40856785697718        2.42455228962969
C           62.77527681638734       -2.04117834796061        1.83055583529713
N           62.58881270331077       -1.04411961740197        0.90384512585300
C           63.98413803071605       -2.66522456020395        2.10970060050490
C           63.98754231015038       -3.81029093868405        3.04842257680418
C           63.27862927386503       -4.97828634966705        2.77109486726639
C           63.31553025306160       -6.02203746315410        3.68238119290252
N           63.99358759243910       -5.96309463368050        4.82386802952906
C           64.66916679961618       -4.85169112258552        5.09715470944003
C           64.70017573871245       -3.75851634416172        4.24576381896562
C           65.19296256268696       -2.26377156215277        1.55331345049031
C           66.44078529696792       -2.92821983932573        1.78041824106178
C           67.39651218788096       -2.17824488629256        1.17860905308841
N           65.38062749389800       -1.14692348380533        0.77721516374742
C           66.72685472603158       -1.06613129243451        0.58194037058997
C           67.39875842148210        0.00665399784459       -0.01987804619012
C           66.72696141451947        1.07563571986842       -0.62865122620935
C           67.39634548935990        2.19150743403635       -1.21851232560878
C           66.44258402875400        2.93613549499520       -1.83007553622368
C           65.19627150346410        2.26446539820771       -1.61620030687802
N           65.38231660469499        1.14911385939935       -0.83747326187077
C           63.99066392091834        2.65842138589335       -2.18518798340146
C           63.99580048405493        3.80552421040435       -3.12113819145461
C           64.72815163219492        3.76678211521657       -4.30704103579392
C           64.69935472308082        4.86347017621110       -5.15400642568542
N           64.00721779497428        5.96624721161297       -4.88727633771097
C           63.30969309676551        6.01263237134950       -3.75700642526394
C           63.26960320543255        4.96464394194693       -2.85081029146255
C           62.78258866530798        2.02818352559421       -1.91609899520075
C           61.53528343644910        2.38873458778140       -2.52052863159266
C           60.57836097205745        1.64637419070137       -1.91162078800905
C           61.24708023026541        0.82866543503694       -0.94928189117933
N           62.59250915685646        1.03531128213189       -0.98557086495158
H           59.50580971730377       -1.66307397282728        1.98485746938756
H           61.40288109520498       -3.14068759416884        3.20595193720071
H           62.72040699819695       -5.07389266266417        1.84748301753800
H           62.77677606135637       -6.94445991038140        3.48667011297758
H           65.21083662793873       -4.83346703351522        6.03828035291816
H           65.25672561807285       -2.86831885837939        4.51345648170529
H           66.56035541733202       -3.84917690962529        2.32724806772221
H           68.46032259394315       -2.34820043387135        1.13835762620736
H           68.45870738611342        2.36746344965473       -1.16735146661959
H           66.56279005255736        3.85796219229602       -2.37529619031034
H           65.29846066699578        2.88384370289679       -4.56969520458106
H           65.25681850215373        4.85545659195910       -6.08598626539433
H           62.75722860862435        6.92801002631528       -3.56649043316114
H           62.69564272655784        5.05037615688959       -1.93590933514881
H           61.41656052489408        3.11435887440399       -3.30846531991246
H           59.51470754143223        1.64292983443943       -2.08730827295747
