462
 energy: -912.164723054475 gnorm: 0.000784733221 xtb: 6.5.1 (b24c23e)
C          102.95468328513418        0.06477154810832        0.01297578350194
C          103.55625392995486       -1.17839218130938        0.15810220728882
C          102.89760211756798       -2.42895687432464        0.32650341480098
C          103.85427867238568       -3.39974823249673        0.41902881023472
C          105.12857604032915       -2.77405002072942        0.29959770296232
N          104.89817489491240       -1.43596596455808        0.15531428572245
C          106.38933171255587       -3.37996868972246        0.33752108146064
C          106.41515772648967       -4.85614563360977        0.47489823833394
C          105.82530568378023       -5.66679637264973       -0.49827142950606
C          105.85363455897145       -7.04631333264897       -0.37623330414187
C          106.47140637464257       -7.60340366355057        0.73159383612786
S          106.52041673254193       -9.34897841021123        0.88680329154023
O          106.38603731986086       -9.97732711049802       -0.39410405745709
O          105.12961422431843       -9.55095286829541        1.70110561132906
O          107.59968906774482       -9.75503449565157        1.73799936133994
C          107.06513061936900       -6.82632532790455        1.71298384236318
C          107.03523714373452       -5.44823631779626        1.57832764109818
C          107.60999045543450       -2.70532791602286        0.25167218302180
C          108.90138673878643       -3.36865853029814        0.21587914866357
C          109.82852631239368       -2.39331571408908        0.12562493104223
N          107.77404970451745       -1.35732711442142        0.16397346718732
C          109.10343421778238       -1.13740862877911        0.10004106736914
C          109.74772173746234        0.11214487233085        0.01310218806061
C          109.12028959016125        1.36820820646566       -0.07767728458098
C          109.76981606352335        2.63057330182685       -0.11597929378221
C          108.80835390667619        3.59891638860804       -0.20189349296657
C          107.53994896622012        2.95536859121606       -0.22598047605178
N          107.77998854259883        1.60996070505558       -0.13987561305437
C          106.27989142889194        3.56031406938025       -0.29212510805423
C          106.25454616122225        5.03820963580485       -0.40175544174163
C          106.85040176677148        5.67793782642976       -1.49180148271515
C          106.82518868035295        7.05889022320981       -1.59719905629557
C          106.20434333248505        7.79110857798897       -0.59837519941393
S          106.16400161183383        9.53912826585697       -0.72912097321748
O          106.32516089174491        9.94503722724473       -2.09344489753444
O          107.53776289061170        9.86822900598232        0.07303880425161
O          105.07467268368762       10.08636042450307        0.02514302272217
C          105.60350020935803        7.18601852073452        0.49363716975339
C          105.63012468017769        5.80446744950975        0.58628975597154
C          105.05863843555736        2.87884690492288       -0.25725826085579
C          103.75872605735334        3.51947276369060       -0.39062447633224
C          102.83921850102882        2.53793114027696       -0.30470304564137
C          103.57588923727378        1.29829977998514       -0.12868223127100
N          104.90984040652006        1.54083182952197       -0.11632806162555
H          101.86943600680222        0.06253538795090        0.01136359975894
H          101.82789835680377       -2.55507273254972        0.37500823803623
H          103.69726539309272       -4.45599286224270        0.56579876431415
H          105.62725082312606       -0.73653398157242        0.06328612205943
H          105.36043617808235       -5.21192948229264       -1.36522780835404
H          105.41103208875357       -7.68418102391597       -1.13095510737421
H          104.99105027513961      -10.48512538771335        1.89946346504794
H          107.54431573574431       -7.29547170342452        2.56306237783003
H          107.48475471892831       -4.82151403519971        2.33962616981147
H          109.05565129046010       -4.43520254512951        0.23757022280504
H          110.90033621833295       -2.49080373619790        0.06504316517757
H          110.83736298583435        2.77249504090399       -0.07005254479879
H          108.96157845264342        4.66526516062139       -0.23280207774060
H          107.05417910597569        0.90127754456016       -0.11348481233437
H          107.31822455158982        5.08666829737726       -2.27038881984663
H          107.27327643962087        7.56389991534247       -2.44368994179866
H          107.60735414243592       10.81624755062289        0.23943989110135
H          105.12177160754737        7.78867301668517        1.25333757032568
H          105.17632355797602        5.31199299871000        1.43831885875421
H          103.59772371502342        4.57425558288856       -0.54437983469000
H          101.76460731461877        2.61231164408189       -0.35917257600310
C          175.17480745960989        0.07958056859350       -0.01128657390589
C          174.58508676815379        1.33577356999704       -0.05995605840412
C          175.25587516541941        2.59115547427236       -0.08287220710738
C          174.30872771890844        3.57391585910078       -0.13678600438240
C          173.02807868372676        2.94975015752686       -0.16333712257763
N          173.24575022480974        1.60303969975658       -0.10293487854019
C          171.77298368595407        3.56530947341105       -0.22416522566768
C          171.75934558767003        5.04630391661148       -0.29257644789632
C          172.37148340567836        5.71479147692042       -1.35577876567773
C          172.36253008933500        7.09881253302253       -1.41518705264979
C          171.74048256697859        7.80432346161393       -0.39809792477348
S          171.72385112496005        9.55610003718963       -0.46687569396821
O          171.90717495585358       10.01231082500522       -1.81255075485816
O          173.09371643023422        9.83582122804747        0.36076569982164
O          170.63196393565272       10.08871134016030        0.29407826110633
C          171.12125286005988        7.17019136096131        0.66681698164274
C          171.13248819647785        5.78619543894057        0.71382358052911
C          170.54674610170031        2.89428149073559       -0.21920762745284
C          169.26143224627492        3.55404161403062       -0.36847894423994
C          168.32567911692644        2.58471852879657       -0.30661388452339
N          170.37133044935194        1.55155873795409       -0.09248453928345
C          169.03950885919429        1.33504752473742       -0.12557279620681
C          168.38539232256778        0.09967834620926        0.03764101495261
C          169.00056617628780       -1.15403986354040        0.20262926873777
C          168.33928167975134       -2.39774844361265        0.38630469792423
C          169.29127202888213       -3.37635010587026        0.45834225580261
C          170.56493110601838       -2.75998717372754        0.30962825102327
N          170.33819499715960       -1.41678735893185        0.17251672361720
C          171.81787661708771       -3.38276170158753        0.31544128455086
C          171.82785269076192       -4.86034034615940        0.43285005645398
C          171.20603068834723       -5.64835762377817       -0.53927847279849
C          171.21896839083360       -7.02980295711087       -0.43956533010853
C          171.85358303104701       -7.61219625476838        0.64544535533628
S          171.87907150047405       -9.36082755680000        0.77406139532228
O          171.68351282423569       -9.96026387056953       -0.51202633175770
O          170.52446020149227       -9.55573054357867        1.64865618817497
O          172.98180602581445       -9.80230104085184        1.57708041290725
C          172.47912737589991       -6.85816829960339        1.62512247037625
C          172.46499548352438       -5.47779317590603        1.51245829427031
C          173.04492003759560       -2.71893438351252        0.21263622201759
C          174.33680856669818       -3.38673079897282        0.15911963119171
C          175.26537089201005       -2.41413681765472        0.06820186223640
C          174.54183765331103       -1.15447036170903        0.05490793453830
N          173.20677715017817       -1.37741678633058        0.13132965149878
H          176.25996543388200        0.07085925139888       -0.02322181397469
H          176.32682579351618        2.71256725802072       -0.05320105583975
H          174.47644785215809        4.63858092633623       -0.14959457569691
H          172.51003744406114        0.90464129365436       -0.08998337367829
H          172.83996122429201        5.14458913779110       -2.14948756387838
H          172.82465040646736        7.62656221995089       -2.23998579071454
H          173.20503268271148       10.78280999266027        0.50910517958725
H          170.63821980690670        7.75269470498720        1.44124877683302
H          170.66433813606798        5.27061544780287        1.54418183637963
H          169.11708555084979        4.61186333257455       -0.51677968996088
H          167.25414410579921        2.68106717001319       -0.37590978637541
H          167.27031902888356       -2.51951068298113        0.45448536626112
H          169.12883559542055       -4.43111203942850        0.60878545389395
H          171.07009775884154       -0.72272584550950        0.06146327717227
H          170.72767487531070       -5.17382380071075       -1.38818649553808
H          170.75111188266771       -7.64980889791508       -1.19391381129188
H          170.48279406657082      -10.45223610095159        2.00328100400375
H          172.97066857141169       -7.34663259025891        2.45710481989453
H          172.93906069865540       -4.86941829059670        2.27373827039752
H          174.48668455464662       -4.45417190038299        0.17544561284567
H          176.33804500361887       -2.50808529345844        0.00604038063430
C          111.15764160369166        0.11959404612456        0.01719547456755
C          112.37441422894376        0.12530519640939        0.02215602966857
C          122.06488331391455        0.14462964810869        0.04879418696842
C          123.28244749676662        0.14107860390417        0.05114407558975
C          132.98218331786890        0.11635266662230        0.06222043912999
C          134.20033031683639        0.11577336213060        0.06688846407029
C          143.90853114696014        0.11560875148117        0.09971452410074
C          145.12703942818737        0.11725676515052        0.10130369332547
C          154.83982433157226        0.11287770403914        0.11978468518489
C          156.05836077639665        0.10816752442131        0.11334965788761
C          165.75744792663696        0.10461983460956        0.05205256654349
C          166.97362099403142        0.10383185592613        0.04472788461645
C          113.78352104230636        0.12913762832941        0.02877966424921
C          114.40900194129922        1.19579050369099       -0.64332591905684
C          113.76281823529033        2.23278686439022       -1.36463679733650
C          114.72742353386670        3.06874759666867       -1.85692491156811
C          115.99213735123398        2.56871902958366       -1.44307989287288
N          115.74975098058816        1.43043987352604       -0.72296298143183
C          117.25195777992774        3.11368904997714       -1.72054491791124
C          117.26612335376990        4.38393870006991       -2.48653347868215
C          117.89284594688816        4.44350637500143       -3.73395412384534
C          117.91057997784111        5.62494977887395       -4.45654988115366
C          117.29891754343024        6.74428320640514       -3.91595274540151
S          117.33197508087348        8.24753247934165       -4.81769243342787
O          117.19340678538730        9.37153066099195       -3.93963730015344
O          115.93775491297825        8.06384547957406       -5.62968372846696
O          118.40729372637588        8.24764754948150       -5.76501224306883
C          116.67481883251085        6.71822512357231       -2.67935615264865
C          116.65805293153116        5.52989452275802       -1.96777819527614
C          118.47883120235579        2.56690681029616       -1.34078981220434
C          119.75814222058078        3.21241087728917       -1.57618346965075
C          120.69984539495064        2.38394474650332       -1.07995065347858
N          118.66389819435949        1.38304586487169       -0.69489694815818
C          119.99577092450583        1.23766652863944       -0.54008050698178
C          120.65692902323035        0.14145968570873        0.04877407115493
C          120.03063521187357       -0.96970000887279        0.64497341987987
C          120.67539521177561       -2.10541226990786        1.19961536987242
C          119.71024690209499       -2.94076323547331        1.69104974430523
C          118.44583379125089       -2.33575349064778        1.45361809329669
N          118.68959872679321       -1.15362825247087        0.80780375462565
C          117.18659887211069       -2.84510362653963        1.79324933622092
C          117.17702278646597       -4.12309052523893        2.54682671524948
C          116.56982467165605       -5.25798166620502        2.00304946445853
C          116.56587588215936       -6.45499070363596        2.69985626759641
C          117.16790321077222       -6.50134772926412        3.94702295733908
S          117.18068419267769       -8.01874419491477        4.82757844308596
O          117.16361665324874       -9.13512543524948        3.92820751835644
O          115.71124351194686       -7.92337770658531        5.50860647526340
O          118.17234491764680       -7.98157276587192        5.85981185591172
C          117.77634088420338       -5.39303742052822        4.51265920015071
C          117.78054401146875       -4.20262202951183        3.80424809376487
C          115.95850617325746       -2.25606643329039        1.48741374032664
C          114.67738044600726       -2.78499037662642        1.92116734067356
C          113.73543538694209       -1.95574737824396        1.42696274726853
C          114.44162925735002       -0.91995483790944        0.69866059845009
N          115.77469508623254       -1.11766992720683        0.76498925764896
H          112.69633388965717        2.31643816384802       -1.49652835009441
H          114.57754439188496        3.94717960697625       -2.46301389725383
H          116.46944085822490        0.84136469005019       -0.31765629566419
H          118.35708637736604        3.55354951897983       -4.14247986922895
H          118.39400368903344        5.68247088984476       -5.42367477167280
H          115.77502754127826        8.83089445256254       -6.19230133908491
H          116.21803931505423        7.61554777928340       -2.28116335449275
H          116.18719341159894        5.49205565398653       -0.99234028381149
H          119.89472336200237        4.17577347546554       -2.03995071759291
H          121.76873030231374        2.52126854781491       -1.05598776500885
H          121.74125744144841       -2.26337989575646        1.20803308928293
H          119.85920348884100       -3.89739082031971        2.16439158719866
H          117.97036979338257       -0.51232484675512        0.49062992533585
H          116.11497345521524       -5.20326232424503        1.02094688163823
H          116.10992241290487       -7.34381009463268        2.28202273749746
H          115.40402085053606       -8.80212168338392        5.76319275930903
H          118.24048255361261       -5.46524548810124        5.48819740587755
H          118.24232073132561       -3.32122003674082        4.23384864912482
H          114.53986249742205       -3.66087985656635        2.53411658098026
H          112.66516660570571       -2.01082908773037        1.54280851253937
C          124.69017739504829        0.14045671430278        0.05104294205573
C          125.32140577843741        0.94033797171140       -0.92070998361312
C          124.68488837415113        1.69896803725077       -1.93652500756121
C          125.65532872150081        2.35140224927941       -2.64667012599330
C          126.91410639439960        2.01417416043131       -2.07888536274632
N          126.66277980728701        1.14646339603349       -1.05053123716057
C          128.17556576601123        2.47313993114192       -2.47753438332873
C          128.19980781018012        3.46687726703059       -3.57828849154756
C          128.87314117277188        3.17641582741113       -4.76774091858729
C          128.90573162907575        4.09796192061576       -5.80119148357381
C          128.26164965661434        5.31230677302728       -5.62978220905412
S          128.31778366458948        6.49325239608597       -6.92568978537399
O          128.18790985735023        7.82606413752554       -6.41347424996745
O          126.92056473939134        6.11785752061363       -7.66198485356014
O          129.40137016947267        6.20042606230010       -7.81481412016324
C          127.58953092016108        5.63116505717810       -4.46088900456400
C          127.55838341666785        4.70003386496886       -3.43583676598088
C          129.39827640560389        2.07743238065088       -1.93186456770042
C          130.67445980159539        2.66080826332356       -2.30507289987809
C          131.61475212337379        2.00781526070962       -1.59159930971121
N          129.58297296439636        1.11125255231244       -0.99092067819259
C          130.91354483406607        1.02933694150424       -0.78505794891765
C          131.57490464500393        0.11694731949958        0.06196659097678
C          130.94124598797353       -0.80431507943658        0.91882231311899
C          131.57495329614335       -1.77248915079524        1.73891481162092
C          130.60424978869835       -2.42784112148988        2.44597397839840
C          129.34753049802129       -1.87437551152593        2.07924176230473
N          129.60014670528162       -0.91088407375048        1.14042684580088
C          128.08730430398825       -2.23389499426250        2.57373822830166
C          128.07208499903808       -3.24553438724014        3.65837079170023
C          127.41106440816459       -4.46338705249178        3.47824595404931
C          127.39935653280502       -5.41274153559662        4.48671990132053
C          128.04922004138851       -5.12783312185001        5.67680587975231
S          128.05047753997943       -6.33128009969746        6.95358879290691
O          127.90238337226975       -7.65211236442966        6.41570668324246
O          126.64646995238944       -5.94109650069403        7.66782307317278
O          129.12138883380629       -6.07563377297841        7.86877374028537
C          128.71248061681530       -3.92978126739583        5.88523973639934
C          128.72283494625913       -2.98966463970079        4.86799882494562
C          126.86363424718787       -1.72231135712378        2.13910737347528
C          125.58597530900359       -2.06188566040781        2.73982424890939
C          124.64577955097369       -1.39840964052345        2.03591522998118
C          125.34938991994991       -0.65251538560444        1.01151387488043
N          126.67994261580412       -0.84899636722437        1.11122343868500
H          123.62102684941237        1.72880909777485       -2.10539572553008
H          125.51316994416052        2.99965667715423       -3.49577693157859
H          127.37657795559484        0.71431560304323       -0.47358366340785
H          129.36312762330181        2.21685474533101       -4.88442495417083
H          129.42568223361016        3.88319429609130       -6.72629411394184
H          126.62336807859646        6.85634655068786       -8.20769908184104
H          127.10785728612957        6.59519826415926       -4.35555706884092
H          127.05104050417518        4.93665047848889       -2.50781480638873
H          130.80954967116995        3.47237896462183       -3.00138297578591
H          132.68062285445703        2.16671364813489       -1.58337332629336
H          132.63710787747502       -1.94974062959055        1.77143593551344
H          130.74480772455360       -3.23192288852818        3.14958231077670
H          128.88767331158229       -0.35813336097721        0.67568213974900
H          126.91957303877498       -4.67130924810117        2.53504149122497
H          126.90108329594325       -6.36473716988498        4.35292533962535
H          126.29381454911605       -6.70159623710190        8.14600517730407
H          129.21334710869951       -3.74130389322714        6.82645853707939
H          129.22651038572832       -2.04138053663519        5.01537097537431
H          125.44969827173868       -2.70533093823017        3.59376798625208
H          123.57856087149824       -1.38665756549381        2.18699858073183
C          135.60737140334675        0.11854295462328        0.06867951459952
C          136.24274179583210        0.76630554857264       -1.00888218171171
C          135.61429274200395        1.36000158025291       -2.13321548356478
C          136.58743428649248        1.92421480404582       -2.91211074236646
C          137.84009404440380        1.69517716559268       -2.28079341193823
N          137.58321336184960        0.97328430021354       -1.14647485625514
C          139.09964994322183        2.12988172637060       -2.71160246160539
C          139.12483112318495        2.98352075060339       -3.92388717887657
C          139.83623814441759        2.57312409418095       -5.05444840544705
C          139.86807507234116        3.36371564258641       -6.19122083917131
C          139.18518227225309        4.56889528933189       -6.18239711005856
S          139.23543594657804        5.58353914017879       -7.61263056213700
O          139.04473590441737        6.96327031894211       -7.27253126284318
O          137.87306157908910        5.06746803084620       -8.32780048369404
O          140.35279997806197        5.22519210517328       -8.43319589553099
C          138.47563104153849        5.00555293153921       -5.07536525923517
C          138.44556016818632        4.20447870765180       -3.94578773565423
C          140.31954929135534        1.83000436896057       -2.10215300071141
C          141.58977476434657        2.39768034201365       -2.51697538527024
C          142.53135484727684        1.84048680794062       -1.72776186932918
N          140.50785690452312        0.97305003787224       -1.06145600175106
C          141.83702801297468        0.93615261797288       -0.83412639515101
C          142.50168578114400        0.11338789775347        0.09837642975718
C          141.86527185916555       -0.72060678347057        1.03919853070217
C          142.49301174871752       -1.60880639239492        1.94882771643381
C          141.51990183615325       -2.17517871072122        2.72632486218690
C          140.26760780436058       -1.64434744255201        2.31442581706253
N          140.52445194180319       -0.78839669030826        1.27785153972620
C          139.00816569748739       -1.92154858830329        2.86200116662982
C          138.98955678653371       -2.80059873888457        4.05612192273269
C          138.29019486052914       -4.01018549604290        4.02868766326206
C          138.27340991398532       -4.83817605182445        5.13880868313431
C          138.95739756779091       -4.44052371437135        6.27624143784203
S          138.95237844957734       -5.49110282588164        7.68140205515010
O          138.73475249878240       -6.85656025072667        7.30174273194084
O          137.58947355961178       -4.96197288974039        8.38509026517369
O          140.06209046823864       -5.18105697127633        8.53123700658586
C          139.65907021755194       -3.24757630279245        6.33420565056972
C          139.67367549354310       -2.42942745670179        5.21656145786612
C          137.78712411850677       -1.44325974482629        2.38420804306324
C          136.51442760569014       -1.67444409358775        3.04389182092268
C          135.57281832986180       -1.10173407651414        2.26593849679391
C          136.27016325580624       -0.52063121100038        1.13642870766632
N          137.59973254347827       -0.71633359384587        1.24842558259170
H          134.55407662319755        1.34432080312356       -2.32393896298622
H          136.45107471713277        2.44283539480016       -3.84691153732198
H          138.29201859025608        0.63834914485665       -0.50268124976332
H          140.35599406322297        1.62223431102833       -5.04334308172142
H          140.41662532227468        3.05534780806110       -7.07230125145796
H          137.55579757722225        5.72751325018924       -8.95647876849584
H          137.96416922021157        5.95967990627944       -5.09814609394109
H          137.90873253698697        4.53524348956163       -3.06428588531037
H          141.71982013877371        3.13625286738967       -3.29116617147131
H          143.59352448310830        2.02160877184749       -1.72150622348355
H          143.55282614038967       -1.79657557295983        1.99182996443030
H          141.65636241944347       -2.90506157945885        3.50734606772099
H          139.81594367956424       -0.27783380768938        0.76169438696248
H          137.77241856342457       -4.30858556991294        3.12463240881527
H          137.74504309182709       -5.78319521752121        5.12369260105543
H          137.22351762547260       -5.64565702268008        8.95960688176227
H          140.18580550149608       -2.96914459119792        7.23827420949364
H          140.20674558335190       -1.48622532702810        5.24599962846961
H          136.38271017040577       -2.18763610734691        3.98256830704011
H          134.50871934866333       -1.05029509342648        2.42891508682632
C          146.53370874049878        0.12255293341115        0.10357142699354
C          147.17087129021780        0.74822234818531       -0.98637232028520
C          146.54656995227003        1.31701350062192       -2.12552430102294
C          147.52000740722306        1.88341852805277       -2.90245061399387
C          148.76907433463381        1.67936191428040       -2.25566637012712
N          148.51025403985136        0.96720285314293       -1.11567356204746
C          150.02593668087502        2.13242511636294       -2.67546148168672
C          150.04820666632421        2.98798888160794       -3.88615602231177
C          150.78213135866397        2.59523166822906       -5.00865646994885
C          150.80961287022927        3.38770862105710       -6.14420585868233
C          150.09944257047545        4.57710932103768       -6.14261102834814
S          150.14499669956194        5.59512309390305       -7.57057441974874
O          149.90261653384093        6.96716138292300       -7.23205971231614
O          148.81532489890802        5.03559197012324       -8.31370987150521
O          151.28976006695245        5.27534528462974       -8.36907161092689
C          149.36732478292151        4.99636715989060       -5.04359894182944
C          149.34199201994878        4.19351443702269       -3.91518756226748
C          151.24473194684819        1.84776929341940       -2.05620787024959
C          152.51065571634788        2.43488804795157       -2.45621278810787
C          153.45407442034775        1.87720732807817       -1.66929874094200
N          151.43640754939946        0.98191181733894       -1.02360835634166
C          152.76520515614607        0.95352445266049       -0.79172884358175
C          153.43277233912715        0.11642559548533        0.12615108790147
C          152.79552713029454       -0.72669049108558        1.05829570372204
C          153.41961500775179       -1.62925170893651        1.95608310353116
C          152.44598009373041       -2.19021291839132        2.73693453354874
C          151.19691943943636       -1.64161251141513        2.33887201346391
N          151.45554916102404       -0.78252229344675        1.30555852561644
C          149.93946089752151       -1.90114537672505        2.89979085657293
C          149.92027191496825       -2.77664519537265        4.09634899791682
C          149.19939557052058       -3.97381281860837        4.08001706480149
C          149.18045915487156       -4.79865596583621        5.19239520854967
C          149.88379952311590       -4.41007780250423        6.32113731183040
S          149.87561823769192       -5.45624884132870        7.72949164165773
O          149.61761307533527       -6.81693625266024        7.35802464054183
O          148.53837293757917       -4.88976462703938        8.45313643205913
O          151.00641247424039       -5.17175011487531        8.56042989502888
C          150.60691187830054       -3.22948800593459        6.36809982355764
C          150.62376069856742       -2.41465560726242        5.24807097064632
C          148.72000666676880       -1.40906090652875        2.43229050074771
C          147.45205173380481       -1.61483823555948        3.10903898550151
C          146.50862797910972       -1.04520235318537        2.33090981344616
C          147.19990933031400       -0.49208534735501        1.18407146769502
N          148.52866809363363       -0.69720979743766        1.28755857272131
H          145.48886126108741        1.28428030570299       -2.32676478868094
H          147.38662074756434        2.38731072669534       -3.84568959350191
H          149.21667313927603        0.64928458973699       -0.46076825204856
H          151.32273036331256        1.65611678343288       -4.99236366940025
H          151.37536352271405        3.09269263842274       -7.01896225324103
H          148.49699751686089        5.67992480094751       -8.95799824520147
H          148.83465490399078        5.93868503293151       -5.07155974000746
H          148.78740820544758        4.51135910571951       -3.03992694019970
H          152.63700782015150        3.18527835070139       -3.21959424304596
H          154.51379004403182        2.07111171873860       -1.65404112154662
H          154.47745601375701       -1.82924267092264        1.98959352860476
H          152.57950437358852       -2.92745773133951        3.51153924507033
H          150.74918818940813       -0.26100640829227        0.79752491035346
H          148.66623256826534       -4.26499784558115        3.18256666029598
H          148.63544706306789       -5.73427135691058        5.18576208089836
H          148.17341539453861       -5.55578742675988        9.04871329960188
H          151.14808291052171       -2.95795491016336        7.26571980915231
H          151.17355052917753       -1.48087920273444        5.26909951964206
H          147.32463352607746       -2.10980742853393        4.05804928164356
H          145.44729882473919       -0.97811112875383        2.50482084606653
C          157.46571071840376        0.10736633824436        0.10126186847066
C          158.09158602890599        0.77328073876927       -0.97125918984201
C          157.45184167948756        1.38519571908424       -2.07943581559399
C          158.41544709457230        1.96775455043479       -2.85588918692343
C          159.67477263389708        1.73085596220441       -2.24048510640606
N          159.43015353289132        0.98757250609003       -1.11697572171311
C          160.92841730445554        2.16807327601956       -2.68467149923840
C          160.93174898354624        3.03634069539191       -3.88738659596382
C          161.59655095851753        2.62904071768670       -5.04671763155644
C          161.59541607338258        3.43057947055641       -6.17642625886941
C          160.92719606996641        4.64313357160566       -6.13110996211464
S          160.92882285310358        5.66760940393605       -7.55529787732651
O          160.74777031022685        7.04455021973594       -7.19928227465254
O          159.54359317578923        5.15282924638559       -8.22661542803807
O          162.01736438901673        5.31645495772058       -8.41655263555220
C          160.26649975847835        5.07820791305645       -4.99373149893120
C          160.26874538944224        4.26623473535318       -3.87155769737672
C          162.15669329560299        1.85173934673787       -2.10054814850598
C          163.43003104117662        2.38684723982390       -2.55007634069501
C          164.37763345347054        1.81466243494737       -1.77938210550403
N          162.34849338442979        0.99957866481281       -1.05831288511851
C          163.68205339876417        0.93901269545294       -0.85676055787411
C          164.34676273216289        0.10491109569419        0.06064222313326
C          163.72606762618457       -0.74420347563248        0.99465822070668
C          164.37344308027309       -1.61466442935120        1.90942277713066
C          163.41132514599855       -2.20354604537742        2.68361473460300
C          162.14791062377788       -1.69850381393135        2.27108790342051
N          162.38691449899090       -0.83782605561121        1.23481827764747
C          160.89318867116825       -1.99421355582108        2.81900606901873
C          160.88197188302885       -2.89673136132955        3.99592463508293
C          160.19514894525722       -4.11253209532332        3.93983813199634
C          160.18133452997674       -4.96368743524208        5.03224099979990
C          160.85573134279144       -4.58277819101755        6.18107420731718
S          160.85059195285947       -5.66089614751227        7.56490379832978
O          160.63005952131959       -7.01823957570846        7.15850174028748
O          159.48913644929686       -5.14006204079600        8.27792289485143
O          161.96071625668756       -5.37095876089303        8.42149463730594
C          161.54512513988453       -3.38438439566399        6.26729142185988
C          161.55678441832049       -2.54283918323635        5.16696375559215
C          159.66780325461954       -1.51019827287623        2.35782929636569
C          158.40173937473520       -1.75400394452495        3.02560661040617
C          157.45383231299223       -1.15894790743216        2.27272543405978
C          158.13960484141296       -0.55406654767324        1.14877029602948
N          159.46971390757335       -0.75715625773824        1.24092027303237
H          156.39065783847448        1.36716898839265       -2.26271881504240
H          158.26903377395848        2.50354048877602       -3.77939610671620
H          160.14655031644443        0.64571280786261       -0.48536138320138
H          162.10373717016637        1.67151146789602       -5.06439464837209
H          162.10607376886381        3.12396528093397       -7.08058622091471
H          159.21256298634955        5.80804414075751       -8.85324473270609
H          159.76585982131650        6.03831487163628       -4.98846647968205
H          159.76799057169364        4.59370459512717       -2.96786208640565
H          163.55819380512017        3.11027847686397       -3.33873179107142
H          165.44592866593283        1.95574737599579       -1.81188525209441
H          165.43939081707975       -1.76598893636057        1.96326162482760
H          163.56225072518615       -2.92803406444450        3.46705175542708
H          161.66803398253654       -0.33539974299293        0.72494234846160
H          159.68370696973531       -4.39629741120308        3.02749350522551
H          159.66220364523767       -5.91320289036449        4.99523268330439
H          159.14092284016908       -5.81776532925266        8.87019111110230
H          162.06424569253232       -3.11943575069771        7.17979310374736
H          162.07928128294324       -1.59473442641898        5.21920873388877
H          158.27865904076683       -2.28962103630875        3.95285420653590
H          156.39229107835112       -1.10697487520583        2.44992459051825
