470
 energy: -834.514404956716 gnorm: 0.000791275649 xtb: 6.5.1 (b24c23e)
C           78.71399273150216       -0.12555244121638        0.02710586847960
C           79.33397831973652       -1.33060713235078       -0.27689273935488
C           78.69258776280215       -2.55980644717887       -0.59843504475880
C           79.66285926254983       -3.49555690471824       -0.82140119758388
C           80.92864277697966       -2.87064800015155       -0.63129407029357
N           80.67947883708710       -1.56558856327056       -0.31566679536842
C           82.19818823268766       -3.44655359894397       -0.75779191187217
C           82.24626180799631       -4.88960211373707       -1.08981508456635
C           82.87156490328725       -5.32350154900053       -2.26308196657541
C           82.91446614770986       -6.66848512636299       -2.57496002284316
C           82.33811377268584       -7.61248055220354       -1.71842268544522
C           82.39995439609311       -9.04243455610397       -2.07171082599375
O           82.92055868773578       -9.46243914358442       -3.07327214330943
C           81.71540814136394       -7.18086327557070       -0.54480870612659
C           81.66737574611548       -5.83302326669725       -0.23618792838443
C           83.40756759662752       -2.76583758560110       -0.59367147099740
C           84.71145280531023       -3.40205266744764       -0.65719319222701
C           85.62163303232262       -2.42914059177463       -0.44652997219326
N           83.54736790398375       -1.43816273705887       -0.32915995386517
C           84.87267903076967       -1.20326541539285       -0.24735529167180
C           85.49668334003724        0.03984927771232       -0.01979984806525
C           84.84942989819413        1.26770753735603        0.21469691616656
C           85.48222272616613        2.52408875520424        0.40895656790399
C           84.50752723628339        3.45896954377148        0.62147418186883
C           83.24850849976852        2.79819814457369        0.57393131404589
N           83.50670230319143        1.47850081540303        0.31453419254106
C           81.98058033613798        3.36917675394446        0.73065678607662
C           81.93487490201122        4.81745877892610        1.03537779654352
C           82.55127301948713        5.32042326610917        2.18574350245676
C           82.50868496250899        6.67226197319207        2.46661654889051
C           81.85356293809417        7.55481812717915        1.60127874992906
C           81.82754794928728        8.99379911591215        1.92018660240970
O           82.34711143525301        9.47244673669723        2.89575094840006
C           81.23808329567045        7.05422221484954        0.45134798145260
C           81.27655295235593        5.69964407244332        0.17343409073821
C           80.77073156387125        2.67411280472806        0.62179111265446
C           79.46174651594526        3.26675215251551        0.85058228683722
C           78.55868686908246        2.28577634448525        0.65248570493120
C           79.31490855997892        1.09278123566758        0.31385810211743
N           80.64388463169458        1.36180786127951        0.31564348551142
H           77.62894697611996       -0.14800517012152        0.03877413519987
H           77.62439751674107       -2.69533622166106       -0.65551173674764
H           79.52016093934579       -4.52648923411432       -1.10191764990570
H           81.39926073236209       -0.87240485181793       -0.14043525412880
H           83.30831320326385       -4.59332225635427       -2.93491752618893
H           83.39259286152486       -7.01226158754174       -3.48590862034886
H           81.92235992792584       -9.71653321268394       -1.32894342974264
H           81.26992255553988       -7.90672002169028        0.12774303309749
H           81.19646271947232       -5.50334466926586        0.68316109032114
H           84.88477034832589       -4.45271770385128       -0.82403617222014
H           86.69646180600230       -2.50825900407213       -0.41669165908270
H           86.54801823739990        2.68347040337848        0.38131278033575
H           84.64553926307661        4.51500586880752        0.78627434853492
H           82.79088024002779        0.76722197463612        0.20789749087141
H           83.04712407865817        4.63789494330108        2.86677636315112
H           82.97934895988962        7.06875524473313        3.35988340494050
H           81.28295552702470        9.61555581131165        1.17791990543847
H           80.73084889674462        7.73220726925176       -0.22736657394879
H           80.81101134134981        5.31653813736710       -0.72761909629901
H           79.28377558967486        4.29042931588674        1.13813023108206
H           77.48371647819209        2.33164937380412        0.72895701756690
C          196.93506858848187        0.10002620705037       -0.02637525812633
C          196.31401205395707        1.26757901192300        0.39789686661325
C          196.95323440879270        2.47993706378467        0.78162009105265
C          195.98292034459141        3.37275597805617        1.13956995990176
C          194.71963371603147        2.73062273095592        0.99589391559411
N          194.96969274804465        1.46892237851383        0.53719952216808
C          193.45086559431419        3.26841263086706        1.24179297633755
C          193.40436434576102        4.65556513258881        1.76012137010109
C          192.75118055498319        5.65934992675343        1.03801253086285
C          192.71013415198496        6.95279152602937        1.52127775759677
C          193.31646674629840        7.27250161294467        2.74074771702042
C          193.25571046257554        8.65923552712180        3.23728413306790
O          192.71243896549461        9.55813164263370        2.64786496868524
C          193.96762702921060        6.27047301610453        3.46420561038851
C          194.01360041246303        4.97657039657656        2.97658000997305
C          192.24197056469842        2.59808098969416        1.03671582993445
C          190.94021505801101        3.15576402823944        1.35817425331248
C          190.02999532111122        2.21867516576768        1.02253298881641
N          192.10143396579366        1.33939201660332        0.53843103980935
C          190.77711184809078        1.08722853264338        0.50769926601508
C          190.15225537132432       -0.08866206968779        0.04573921446915
C          190.79842578694220       -1.24724593904296       -0.42468287548875
C          190.16387234119878       -2.42038384216599       -0.91244571940333
C          191.13862458783453       -3.31322360692732       -1.26143493382347
C          192.39989610478443       -2.71440555041457       -0.98806692499859
N          192.14228251849042       -1.46404138759123       -0.49233804475023
C          193.66823490988239       -3.26337917637845       -1.20722275643313
C          193.71384142175066       -4.64728030304191       -1.73217902220905
C          193.14141501692828       -5.69952168392158       -1.01023005797474
C          193.18474139594790       -6.98931600949197       -1.50298441963822
C          193.79611021746641       -7.25734305732157       -2.73233496108610
C          193.82447791282561       -8.64130519401394       -3.23910770261093
O          193.34395381922752       -9.57817758402532       -2.65416252860904
C          194.36697070145252       -6.20713990625887       -3.45549080265878
C          194.32824563295728       -4.91666370268244       -2.95875388645234
C          194.87882922912206       -2.60280287095097       -0.96910449049414
C          196.19056146985261       -3.20691238820153       -1.14648908555447
C          197.09370098599521       -2.26215631193033       -0.81657607096494
C          196.33521732313611       -1.08631174725093       -0.42690092547361
N          195.00505278242792       -1.33157094142209       -0.52190619488716
H          198.01996693453685        0.12671202415076       -0.04206453472777
H          198.01987038170094        2.63769968355488        0.77382837470330
H          196.12359301743061        4.39052085734041        1.46553233804854
H          194.25122083820364        0.78419623874007        0.32686966720575
H          192.29112457323731        5.41746863741374        0.08664764829854
H          192.21010993570545        7.73795272416217        0.96440284732671
H          193.75956600501047        8.81566461488462        4.21500158854478
H          194.43691241201770        6.50866739958359        4.41325516646137
H          194.50699824878728        4.19846076864349        3.54821968370167
H          190.76827915879579        4.12612212614943        1.79473668331027
H          188.95649184759924        2.26056059586248        1.11321727818730
H          189.09670071487349       -2.55243996084057       -0.98859278131435
H          190.99911051913753       -4.29576560430582       -1.68164988669030
H          192.85896570355459       -0.79720865835022       -0.22516908973355
H          192.67961780112108       -5.49829265774178       -0.05014362678636
H          192.74856504649034       -7.81143485294333       -0.94573647850547
H          194.33076056497075       -8.75690367651790       -4.22118021665285
H          194.83977129167684       -6.40544286917581       -4.41191723446477
H          194.75911362098526       -4.10174289661527       -3.52941684070612
H          196.37076478977082       -4.22086424005137       -1.46540174666376
H          198.17040797414384       -2.32719247439802       -0.81761100179749
C           86.90203555273156        0.07143160852302       -0.02657399330862
C           88.12619802581592        0.09943987320978       -0.02920258839233
C           89.46845451863646        0.12233354521522       -0.03489864535510
C           90.69894079104171        0.14000692186359       -0.03787360623880
C           92.03649149911288        0.15144636451399       -0.04171898627361
C           93.26718634729097        0.15490529476999       -0.04397766071366
C           94.60937353479056        0.15075054653636       -0.04581353949224
C           95.83405582135016        0.13866579429452       -0.04707128755698
C          105.48856187866845       -0.08544185146318       -0.12095185502480
C          106.71333124466709       -0.11079692327867       -0.12220657597766
C          108.05439763124377       -0.12879877353538       -0.12086051130508
C          109.28544824310364       -0.13709865180475       -0.11551804064463
C          110.62188780311476       -0.13883374257625       -0.10488803499389
C          111.85286735536621       -0.13686709317649       -0.08807684984437
C          113.19389636406432       -0.12652106390918       -0.07306090493476
C          114.41873859382814       -0.11429752223641       -0.05373231559479
C          124.06893888776320       -0.04532316888692       -0.00591627041690
C          125.29384257123952       -0.05147762546968       -0.02283453681998
C          126.63474203019905       -0.05398995563713       -0.04191732958122
C          127.86568510069621       -0.05269177154803       -0.06051911963658
C          129.20193632595624       -0.05165079851967       -0.07700709579779
C          130.43296547837812       -0.04874831301908       -0.08824111374592
C          131.77399790185220       -0.04605537841109       -0.09139990486596
C          132.99902332261641       -0.04276033028594       -0.08610568821645
C          142.64462485205357        0.10038220990339        0.15637483533012
C          143.86937084913907        0.11643839570858        0.17823774920481
C          145.21030304305901        0.13386167386402        0.18949012267206
C          146.44139268306373        0.14230523837693        0.19054876099483
C          147.77773526782798        0.14672076642338        0.17992336054937
C          149.00869446265651        0.14227266169438        0.16237076101156
C          150.34947639800467        0.13072524845094        0.13651472864617
C          151.57407169666291        0.11135480994627        0.10947488536014
C          161.22440802847109       -0.00921599226979       -0.03276313992941
C          162.44947377362493       -0.00702765292665       -0.02721113835701
C          163.79069162713850       -0.00354561798939       -0.02212450136149
C          165.02178886253350        0.00096026843231       -0.01457892636924
C          166.35833294347040        0.00281596536756       -0.00863728353385
C          167.58943259721210        0.00336010325690       -0.00203696538727
C          168.93069288408122       -0.00028112413506        0.00337375669880
C          170.15572079341055       -0.00806702457080        0.01044893762105
C          179.81402892260104       -0.13869950961416        0.01804186541801
C          181.03861674473634       -0.15388402348807        0.02224353292495
C          182.38094110917561       -0.16295028588956        0.02535286051585
C          183.61159546466493       -0.16658955836682        0.03031897079479
C          184.94936918325817       -0.16424307808006        0.03675159659497
C          186.17989515473053       -0.15625992629237        0.04108025721810
C          187.52241373740856       -0.14091850492085        0.04461739343993
C          188.74666968182245       -0.11937720379642        0.04812785182258
C           97.23850237440517        0.11547590059192       -0.05152220945010
C           97.87747346966334        1.04006659232885       -0.89998395833841
C           97.23947106847106        1.97023529503452       -1.76077206574001
C           98.21292041019140        2.68983594218083       -2.39822119436087
C           99.47432109693385        2.22433771556013       -1.93703346364718
N           99.22091654976930        1.22123084678027       -1.04072668507977
C          100.74121857648323        2.67426475757960       -2.32970212889028
C          100.77429837748846        3.79972305248681       -3.29370923151865
C          101.37055707129730        3.63821424586096       -4.54820179893649
C          101.40287214196208        4.68786560797153       -5.44571216948999
C          100.84507054281006        5.92540764537495       -5.10791247917107
C          100.89751747900031        7.03191848950504       -6.08106888074460
O          101.39538408638441        6.93873790206739       -7.17364538366315
C          100.25030088046590        6.08847929183872       -3.85454653180634
C          100.21239876225663        5.03483215533827       -2.95860873764630
C          101.95880178692978        2.15267209559890       -1.88910085965226
C          103.25442566591221        2.68683931455902       -2.26986799442134
C          104.17868451330138        1.92483766195410       -1.64987994060291
N          102.11736927882606        1.10165376579415       -1.03835580600023
C          103.44619180787713        0.93444852133077       -0.88538096510376
C          104.08538629225474       -0.05434958153825       -0.11046402359127
C          103.44460885119946       -1.02192843305799        0.68763217993878
C          104.07973636672027       -2.03848643036070        1.44681709775718
C          103.10670492227325       -2.75190078485972        2.09154977794279
C          101.84893288000870       -2.18359861312026        1.75106909337888
N          102.10338501426074       -1.14899099717086        0.89139305670754
C          100.58360233427190       -2.60047137696372        2.18262789670781
C          100.55426934237444       -3.72536398980096        3.14716708468538
C           99.90487674294261       -4.91910765761143        2.82015025227271
C           99.88186802726833       -5.97290587959950        3.71624438839488
C          100.50446228457419       -5.85217888806454        4.96092362438603
C          100.49486304333233       -6.96002817226538        5.93390891443451
O          101.02178022479006       -6.90464616731536        7.01542033899065
C          101.15118237201128       -4.65639298207644        5.29022795154026
C          101.17836706568060       -3.60637305407784        4.39289216150339
C           99.36700739908707       -2.04507040293291        1.78116391023789
C           98.07579477371534       -2.46314964300505        2.29744512753974
C           97.15105972701345       -1.70663325740574        1.67125921803413
C           97.87934769927806       -0.82148790232278        0.78367927410538
N           99.20687160120289       -1.03847394332976        0.87906378334352
H           96.17194221574515        2.06607133493378       -1.87575944294796
H           98.07131243708348        3.46722054124597       -3.13107946641344
H           99.93661748364377        0.68694773707312       -0.55944348272566
H          101.79366618281230        2.67695894027914       -4.81691330559544
H          101.85894537619660        4.56913759197137       -6.42269879828214
H          100.43508858700999        7.97634042853596       -5.72283063050239
H           99.81877946917281        7.04633539973624       -3.58270006104433
H           99.76269512297409        5.16919595010373       -1.98119959234797
H          103.41347855028100        3.53802321956737       -2.91163986968718
H          105.25304420195127        2.00850070254891       -1.68361051904656
H          105.14484255748054       -2.20001485349151        1.48468901384778
H          103.24612799217212       -3.60274912470465        2.73805718355034
H          101.38963516755076       -0.56613141394913        0.46699438748459
H           99.43264088809707       -5.02048759198660        1.84955286822568
H           99.38082288463778       -6.89827365779739        3.45131990633487
H           99.95424787371965       -7.86653361405070        5.58751950818349
H          101.62791707571942       -4.56972898658154        6.26071732708688
H          101.66871368054559       -2.67617324235760        4.65705872945621
H           97.92035409921033       -3.22166145732314        3.04729657033257
H           96.07931095795040       -1.71988479449861        1.78770323961445
C          115.82194267144942       -0.09341017202801       -0.03412367719975
C          116.44359026075864        0.84202997105252       -0.88437899081601
C          115.78835264254346        1.73908849623073       -1.76692627348274
C          116.74633084625005        2.49261407682232       -2.38858880017630
C          118.01446099642931        2.08105311454886       -1.89620113232048
N          117.78140394695379        1.07414156846033       -0.99849876763995
C          119.27091158334679        2.57945913430322       -2.26318916928575
C          119.27967335315417        3.70632278909284       -3.22577508081610
C          119.91058814470134        3.57288043806478       -4.46651679030286
C          119.91903309131962        4.62507410574294       -5.36163815409122
C          119.30157495058312        5.83708848969051       -5.03534630821692
C          119.32981211138843        6.94715838970118       -6.00555830557515
O          119.85891596014254        6.87844473577665       -7.08514560759658
C          118.67154719337042        5.97199273388037       -3.79595085363568
C          118.65818420871469        4.91582971514640       -2.90234452913537
C          120.49764728839169        2.10206567794597       -1.79877481089658
C          121.78128692856369        2.67747727340952       -2.15885431300276
C          122.71970234895214        1.94138235494196       -1.52880969700159
N          120.67620421920120        1.05567331533829       -0.94604716597801
C          122.00715082143549        0.92798929318953       -0.77572087610987
C          122.66561127060049       -0.04254445344437        0.00640280356526
C          122.04498486262558       -1.01785230727350        0.81103691876415
C          122.70173903901556       -2.00504331522551        1.59027871040648
C          121.74359423722552       -2.73474919691183        2.23926250260755
C          120.47351484255699       -2.20761381584687        1.87941388091014
N          120.70618166001518       -1.17891596188621        1.00665266633415
C          119.21625971576229       -2.65617845793063        2.30346505859310
C          119.20929623260574       -3.76373331843843        3.28817874408537
C          118.60055332553286       -4.98267996008179        2.97625811648154
C          118.59725541270657       -6.01934802585775        3.89242155958462
C          119.19914900300668       -5.85595811383416        5.14238090638825
C          119.20895950777533       -6.94440393607250        6.13714382012099
O          119.71894775496415       -6.85195810376403        7.22417932183400
C          119.80575878590490       -4.63526754548021        5.45623845277525
C          119.81355298314092       -3.60233933351557        4.53890402443513
C          117.98882657850483       -2.14762599238582        1.87475874974464
C          116.70343979941033       -2.59880806913561        2.37735264409521
C          115.76517516429570       -1.88588604996940        1.72075263384566
C          116.47924479329609       -0.99322030782654        0.82919434315151
N          117.81092143711875       -1.16334477692373        0.95106547799339
H          114.72071472249864        1.79166564976950       -1.90606353433099
H          116.59022104976128        3.25833074156212       -3.13071138031815
H          118.50712048481235        0.57284309131891       -0.49715412282351
H          120.37949030167687        2.63082444431399       -4.72705978792424
H          120.40205691635633        4.52795856499273       -6.32799967709438
H          118.81562793148686        7.86882756412865       -5.65880693596188
H          118.19325452435081        6.90992543297430       -3.53306535954791
H          118.18079808897484        5.02880796308664       -1.93540509867985
H          121.92325181988755        3.53534667558906       -2.79569879369588
H          123.79132919548123        2.05819474685453       -1.54705355943804
H          123.77058771809767       -2.13598535100468        1.63922799926722
H          121.90108199541744       -3.57096995431689        2.90055298826135
H          119.97971390944639       -0.62364076744000        0.56711564214204
H          118.14454965392558       -5.11693483334129        2.00189500583737
H          118.12767971228604       -6.96432149773340        3.63930694376359
H          118.70112154640761       -7.87359652989085        5.80148904089371
H          120.26672979695759       -4.51567830047218        6.43083537388787
H          120.27258364015080       -2.65297209249560        4.79087499370545
H          116.56011258513716       -3.34790955614414        3.13898048065598
H          114.69252468430949       -1.93301915102611        1.81883639154504
C          134.40226883691460       -0.03365116967596       -0.06791623393342
C          135.03328360905894        0.89234132670115       -0.92147353639079
C          134.38859515581066        1.77330162723783       -1.82760365629641
C          135.35432747443869        2.51175643355599       -2.45540106393240
C          136.61646468994135        2.11036967375266       -1.93962468043267
N          136.37242663426807        1.12098052521657       -1.02540898818152
C          137.87747875437432        2.60670577249557       -2.29324465762188
C          137.90228966478526        3.70481224294038       -3.28816170176468
C          138.56624184426147        3.53654612432471       -4.50735794520636
C          138.58856801519309        4.55836404003419       -5.43666631686889
C          137.95234611323795        5.77455172138931       -5.16678493523238
C          137.99410186433275        6.85119411954819       -6.17350800936513
O          138.55029777723777        6.75107420745227       -7.23690463207840
C          137.29097191760661        5.94496221427501       -3.94828142301385
C          137.26393674694026        4.91904146580575       -3.02031224546820
C          139.09646603849404        2.15399462655328       -1.78520076861750
C          140.38125766220330        2.74420445314596       -2.11600759840094
C          141.31070385151023        2.03991566274785       -1.43812917425689
N          139.26483482595438        1.12779803078059       -0.90641892907162
C          140.59163294904118        1.02710556292812       -0.69045444929299
C          141.24184654539638        0.07532498185337        0.12104455460410
C          140.61412202758166       -0.91709690559001        0.89888646122756
C          141.26405774824866       -1.90461724447541        1.68340896001377
C          140.29958716891403       -2.66549997753566        2.28558435431644
C          139.03200642326334       -2.15529963819170        1.89407624123332
N          139.27307732463444       -1.10627366497070        1.04810004715302
C          137.76981342872918       -2.62961542661692        2.27255453229790
C          137.74720155278939       -3.76666754421395        3.22275469986935
C          137.15601987947232       -4.97853600893560        2.85408214621182
C          137.13601430529789       -6.04547150199658        3.73441492223362
C          137.70270234203394       -5.91994982059378        5.00505159681885
C          137.69376105846476       -7.04125296705532        5.96261313267521
O          138.17041139917433       -6.98124466045117        7.06691730220083
C          138.29066608504485       -4.70619169661712        5.37603097767422
C          138.31556396041228       -3.64287157383128        4.49426175962176
C          136.54786392807097       -2.11893857195013        1.83079904482865
C          135.25689927151367       -2.58196392029803        2.30765775402429
C          134.32619262660407       -1.85223517210184        1.65895749162984
C          135.05023487218023       -0.94302628404473        0.79241400076423
N          136.38049037818311       -1.11620770210575        0.92532328049071
H          133.32256903575501        1.82381432019898       -1.97941368360855
H          135.20687483136587        3.26158641538809       -3.21528490050714
H          137.09220241161174        0.62912501324661       -0.50640436083901
H          139.04992796970296        2.59086054340436       -4.72409896315778
H          139.09672987842328        4.43367817012025       -6.38683671146984
H          137.46403635608476        7.77930836992186       -5.87071806702136
H          136.79869277146830        6.88680087556168       -3.72875858635876
H          136.76236763404941        5.06033030254322       -2.06948707160526
H          140.52901327993578        3.59115141955461       -2.76604317510038
H          142.38006208213329        2.17627832422632       -1.42297619264081
H          142.33307704157912       -2.01597852006049        1.76574344895920
H          140.45180294734180       -3.51103379209339        2.93616322993732
H          138.55053744374973       -0.55769167157854        0.59385442682279
H          136.72658249125368       -5.08241681615150        1.86404286821939
H          136.68045129318131       -6.98446126989910        3.43725218983180
H          137.20378591842658       -7.96243368267715        5.58141199264232
H          138.72357392034414       -4.61612827662405        6.36654113840186
H          138.75930091351742       -2.69915114910861        4.79082314276113
H          135.10527479669096       -3.34807837670073        3.05052872637967
H          133.25257625100360       -1.90090282631164        1.74468074350586
C          152.97679832248187        0.08501730888910        0.07451532966135
C          153.59786217494241        0.99454052370802       -0.80364112186635
C          152.94148440771744        1.89772516695848       -1.67900951934339
C          153.90107154958142        2.60319214411090       -2.35238995015546
C          155.17183506906704        2.15884206100963       -1.89628659679095
N          154.93761080783921        1.17879759349842       -0.96947262459298
C          156.43074832643126        2.61079231942954       -2.31119201647233
C          156.44467795958781        3.70232976120143       -3.31371383154679
C          157.03928858146611        3.50286949690038       -4.56356428172105
C          157.04780958062759        4.51654090910704       -5.50199263536154
C          156.46759327477653        5.75557977823697       -5.21069421490160
C          156.49179638104272        6.82228716264921       -6.22850944197737
O          156.98655165932348        6.69491222101130       -7.31900151599480
C          155.87707139686623        5.95758552756868       -3.96101846393986
C          155.86321783117143        4.93980813003011       -3.02381819451498
C          157.65678063565841        2.12084760319146       -1.85739763060306
C          158.94264853173379        2.67192783594990       -2.24641444467372
C          159.87958466782939        1.94649483419070       -1.60190822777231
N          157.83304931137317        1.09380739208940       -0.98133446025480
C          159.16450696861315        0.95752985957272       -0.81931795781671
C          159.82081788749790       -0.00902173351039       -0.03070322994370
C          159.19714298121440       -0.99226481089541        0.76227571981728
C          159.84995793247890       -2.00653822169292        1.50925342820553
C          158.88931947085166       -2.74864249812540        2.14037743428566
C          157.62195296570167       -2.19815056924088        1.80716339402737
N          157.85828608495663       -1.14683391038990        0.96264764308280
C          156.36335627957712       -2.63721257541363        2.23703604443382
C          156.34606295764675       -3.78575555011081        3.17335516284359
C          155.69548710256240       -4.97088529057302        2.81777094100256
C          155.67883898669285       -6.04906712587415        3.68430766297425
C          156.30894209573410       -5.96188479065087        4.92801429616155
C          156.30434030611588       -7.09562727913665        5.87080118174709
O          156.83676658301832       -7.06946008473413        6.95065856118135
C          156.95668245683751       -4.77495333984889        5.28601502608277
C          156.97750453100474       -3.70029836930785        4.41796863199666
C          155.13974457719831       -2.08130771406733        1.85893812825918
C          153.85816408036064       -2.50540157437156        2.39397271363491
C          152.92250838693292       -1.73946988705676        1.79608634233898
C          153.63439509324857       -0.84779902722172        0.90177992551429
N          154.96304324625527       -1.06509301394096        0.97046547158615
H          151.87182907545929        1.98467148484116       -1.78041513374253
H          153.74340230891846        3.35806763066695       -3.10518627686288
H          155.66378653071172        0.66170462593569       -0.48507717327916
H          157.47907319127572        2.53969545321974       -4.79624795914097
H          157.50127179110498        4.36760653306706       -6.47605190449994
H          156.00939831701956        7.76999354472396       -5.90724013387868
H          155.42917111934213        6.91736802388447       -3.72480768698011
H          155.41650313858250        5.10490874053557       -2.04976230546032
H          159.08637121703640        3.51011477815949       -2.90862603187828
H          160.95206790326608        2.05241736203855       -1.63239963951717
H          160.91782920450268       -2.14866902637907        1.54689885825918
H          159.04387401905302       -3.60657687594238        2.77393188069279
H          157.13394313673862       -0.57245253012489        0.54460782803414
H          155.21638934206098       -5.04529643973998        1.84806574184770
H          155.17645977461774       -6.96707456211146        3.39720437068974
H          155.76492814594650       -7.99368899335278        5.50121935849718
H          157.43862883514763       -4.71440433086135        6.25590854857114
H          157.46738843116958       -2.77686216648672        4.70559503253383
H          153.71663335927482       -3.27222921325863        3.13810345089320
H          151.85320821994532       -1.75276032164534        1.93325577797180
C          171.55924743346787       -0.02137047291560        0.01437719950097
C          172.19656087897479        0.90017557327603       -0.83902144394630
C          171.55712298159150        1.81305064438160       -1.71698388797676
C          172.52903117460960        2.53707847405657       -2.35165021955646
C          173.79072673922752        2.09273349358632       -1.87046174037462
N          173.53900698611258        1.09550660127720       -0.96685218343682
C          175.05627879543101        2.55753225261480       -2.24900200078694
C          175.08499345676375        3.67260901511373       -3.22499832543655
C          175.70245936899886        3.50635228729280       -4.46857129199973
C          175.72308603102991        4.54292109150397       -5.38149236242434
C          175.13246458095389        5.77215610511321       -5.07024298936228
C          175.16946480821437        6.86356329582006       -6.06108862860443
O          175.68075474322302        6.76404041219196       -7.14686132539394
C          174.51894837226590        5.94096980643758       -3.82671962574194
C          174.49283417987684        4.90027129826996       -2.91536732074557
C          176.27520608048650        2.05771840067194       -1.78604675353567
C          177.56767819388909        2.61194638566965       -2.14832000124103
C          178.49463643784267        1.86568061759160       -1.51332984971095
N          176.43736442537207        1.01137470982858       -0.93097293073963
C          177.76694142219540        0.86386418673379       -0.75925539812469
C          178.40931242421411       -0.12116742166970        0.01699071168438
C          177.77119675899701       -1.10114588752504        0.80156885908608
C          178.40900362794281       -2.11710318493862        1.55942284235547
C          177.43712550806930       -2.84325665879387        2.19162018081015
C          176.17723157312463       -2.28351064729641        1.84503762086696
N          176.42925652039278       -1.24159289821767        0.99381553044015
C          174.91216613621972       -2.71159533834562        2.26709198211157
C          174.88252608383874       -3.84242281750817        3.22468324264413
C          174.23912329096780       -5.03611555188646        2.88553798862688
C          174.21035325857940       -6.09462513071775        3.77580786439646
C          174.82095438288752       -5.97870543030777        5.02687420021596
C          174.80237217049503       -7.09063988602425        5.99507029348824
O          175.31781720438573       -7.03928746566742        7.08228495267194
C          175.46271613130895       -4.78350824999311        5.36778180364418
C          175.49590338392446       -3.72876786612432        4.47611423559820
C          173.69421360386733       -2.16197301990494        1.86278870202007
C          172.40361770247205       -2.58704392705690        2.37515197966016
C          171.47672900790698       -1.83551450426980        1.74616402772591
C          172.20308131062143       -0.94776991895233        0.85960208980177
N          173.53109725625740       -1.15613882716726        0.95994675149985
H          170.48990698691335        1.89465985971317       -1.84507480911405
H          172.38602825056216        3.30413306111875       -3.09501683210760
H          174.25535062147836        0.57481039840464       -0.47185291522879
H          176.15013825212924        2.55085901081282       -4.71728303831230
H          176.19427525947091        4.41979306080380       -6.35072700257570
H          174.67817918097936        7.80143528104846       -5.72477106069284
H          174.06246514884489        6.89276539080843       -3.57510801547016
H          174.02753210756455        5.03920295321011       -1.94592855542589
H          177.72228798534695        3.46496188717486       -2.78877239039694
H          179.56789286951732        1.96650456812217       -1.53104046085550
H          179.47516642897702       -2.26941276117573        1.60504187205887
H          177.57865783990275       -3.69691760402255        2.83396426895918
H          175.71380928959729       -0.66252697063754        0.56707447830493
H          173.77521321849306       -5.13308064972923        1.91047035311159
H          173.71342671767567       -7.01955530956285        3.50173342279019
H          174.26661060124403       -7.99630858324384        5.63905887841539
H          175.93010351731860       -4.70072981702130        6.34314192952681
H          175.98159516944420       -2.79883683860016        4.74963175118228
H          172.24997128774552       -3.34595998887026        3.12496107605911
H          170.40468695177393       -1.85438336101671        1.85924366279366
