124
 energy: -245.712187470928 gnorm: 0.000913165790 xtb: 6.5.1 (b24c23e)
Ni          15.94869827118379       -0.05127131963674       -0.01942338164414
C           12.55906702481358       -0.05390153560320       -0.16824967215844
C           13.21005674036889       -1.26922066279873       -0.20159322003730
C           12.53283140515058       -2.52858490686521       -0.26241996277791
C           13.48965657151076       -3.47826899700702       -0.37934033486672
C           14.75078480613228       -2.79558343116941       -0.40419864549139
N           14.57062180001604       -1.44414157202854       -0.25337350711663
C           15.97225486102593       -3.42695969604496       -0.60360029610611
C           15.98282377325107       -4.88451384922606       -0.86375760984479
C           16.65071676505233       -5.75354374356059        0.00411605056075
C           16.66163988409278       -7.11549162868048       -0.23613930959649
C           16.00312747028478       -7.61236498370909       -1.35717288219232
N           16.01401537410266       -9.04150755881614       -1.61600641243936
O           15.42271220043136       -9.43634149427358       -2.58789635139663
O           16.61178164085569       -9.74368921664781       -0.84182975209517
C           15.33440871171090       -6.76394816487502       -2.23487684893237
C           15.32530516299116       -5.40426259027403       -1.98281264609542
C           17.18347765479622       -2.74691890035615       -0.58063637733213
C           18.44818595285182       -3.36162967957012       -0.85023145545117
C           19.39339233282969       -2.41027065469407       -0.66017036437683
N           17.35071172010089       -1.41726640328444       -0.26920739744583
C           18.70417613940473       -1.21718936917620       -0.28392610105106
C           19.35955515715332       -0.04056505415358        0.08755658203409
C           18.67464067004282        1.12839124275192        0.42905478327359
C           19.33114776219880        2.32146309281830        0.85976674552816
C           18.36883494485429        3.26350244238884        1.00606387762918
C           17.12783611617408        2.64436779803323        0.65042133362823
N           17.32322159470021        1.31928577015472        0.33521477840238
C           15.91509120136288        3.31902198041375        0.59196483681162
C           15.89811887473751        4.77494146724660        0.86235854252597
C           15.16115765760928        5.28304112531096        1.93625898174127
C           15.13998345088125        6.64168504129752        2.19363867908176
C           15.85719060970415        7.50040637258909        1.36563299908374
N           15.83401977442097        8.92887535924978        1.62817905051074
O           15.18419439902694        9.31260101073814        2.56650787309527
O           16.46376733729179        9.64157846190881        0.88959213126063
C           16.59519178389628        7.01494360488354        0.28995770467572
C           16.61497101527943        5.65390205747816        0.04511630385394
C           14.71607208858715        2.68706386563479        0.28680252705879
C           13.46075415826008        3.36870509328808        0.15857094540562
C           12.52051809915160        2.41986225071048       -0.05762947384550
C           13.20280219398911        1.16180801078702       -0.07079957234786
N           14.55287436479636        1.33726253701726        0.10546373976833
H           11.47659681223379       -0.05447437954576       -0.21802555303908
H           11.46232314141989       -2.64939105476792       -0.21853451139063
H           13.36589025056124       -4.54724309098304       -0.43959938417761
H           17.14993390024400       -5.35519321562663        0.87961570057670
H           17.17140275401557       -7.79769895664559        0.43346069695998
H           14.83323137031951       -7.17539212723320       -3.10263455206739
H           14.81884145060649       -4.73155455214896       -2.66502321439551
H           18.58523056318419       -4.38680030316210       -1.15285149040400
H           20.46337210934517       -2.49387535523828       -0.76052822518359
H           20.39253303431309        2.41046330113466        1.02572456492580
H           18.47912457618489        4.28560356467111        1.32939052569176
H           14.61514715131940        4.60240499996883        2.57897453261660
H           14.57696359575241        7.04465146806370        3.02686858493818
H           17.14139776805852        7.70509501293133       -0.34170911339361
H           17.17636541606831        5.26397676429835       -0.79587922527041
H           13.33028180526208        4.43672066053344        0.22182363470074
H           11.45815372084230        2.54023962606781       -0.19687282504626
Ni          29.37537644158190        0.05563088329663        0.00109475196530
C           32.76490881516953        0.11418308676006       -0.13778828997766
C           32.11407958515299        1.25340320299348        0.28706121021398
C           32.79151782753947        2.44392982464098        0.70185286876261
C           31.83479239990125        3.36811175620823        0.95013637343364
C           30.57347657908922        2.74429601727336        0.67250252811355
N           30.75351198695688        1.43483918548797        0.30572081180146
C           29.35187700561465        3.40407178413638        0.72583695253213
C           29.34112627957776        4.85273683457452        1.03150806837812
C           28.67299787739157        5.33252637814986        2.16197461439243
C           28.66168407121356        6.68510420715783        2.45030076973924
C           29.32027476244744        7.56645895455024        1.59781250190755
N           29.30909738162341        8.98826463237257        1.89419637424841
O           29.90268816621994        9.71877799323669        1.14310654213381
O           28.70940588868723        9.34883182490309        2.87405554713168
C           29.98928480367623        7.10948889483709        0.46601435731990
C           29.99854972379368        5.75459970103607        0.18934065581261
C           28.14056888660553        2.76467316912871        0.49341266953708
C           26.87565905950058        3.43530538337293        0.47501906739718
C           25.93059647037398        2.48193198306894        0.29463165831219
N           27.97351753569611        1.41527938466897        0.28325517881352
C           26.62007609124852        1.23503842532550        0.19510023238001
C           25.96461412922567        0.00506462192252        0.09797249368086
C           26.64944081837442       -1.20673707004444       -0.02343616957041
C           25.99319900281442       -2.47442573597975       -0.07047826672274
C           26.95562355038711       -3.40249824942672       -0.28801612644677
C           28.19640978965566       -2.69495898250703       -0.38656573933197
N           28.00085287813959       -1.34831948666845       -0.18239858569436
C           29.40900908579075       -3.29829459482827       -0.69465834074308
C           29.42603675402649       -4.74941071935609       -0.98975787231101
C           30.16405933059716       -5.62282666061156       -0.18538886477952
C           30.18543463748133       -6.97885692170257       -0.45617720612642
C           29.46735933313701       -7.46474810204234       -1.54505702325927
N           29.49113309792283       -8.88737995285978       -1.83753954866792
O           30.14266990433870       -9.59456148002337       -1.11267339888338
O           28.85890793950843       -9.27167352572522       -2.78755982965797
C           28.72812511803870       -6.61168296738725       -2.35943784836924
C           28.70821978935717       -5.25811851271388       -2.07617082340960
C           30.60784412620058       -2.59779054957324       -0.74181537756869
C           31.86294054946156       -3.18143612252019       -1.11730391359323
C           32.80318142925390       -2.22065376495156       -0.96259516774217
C           32.12108764841503       -1.04953382066551       -0.50259386390039
N           30.77111333552692       -1.27842906432268       -0.40400401049356
H           33.84735120650718        0.13348574893230       -0.18440619008440
H           33.86209350716727        2.53963866356842        0.78680230983539
H           31.95880525440943        4.38181979131656        1.29463259880529
H           28.17383073794490        4.63467904900263        2.82398021044275
H           28.15164977144270        7.06607774563100        3.32685761633859
H           30.49050126959249        7.81659977332605       -0.18381722950707
H           30.50503655553083        5.38722214340856       -0.69551067216461
H           26.73834876825426        4.49906814249881        0.57932662899534
H           24.86053273503797        2.59674100232287        0.23364049263651
H           24.93192332061976       -2.61942017811857        0.05060306003607
H           26.84552446361120       -4.47133415676741       -0.37085639914229
H           30.71075206206248       -5.23261039027915        0.66510366254676
H           30.74938816336607       -7.66461612736633        0.16457653723004
H           28.18127584621782       -7.01485065215399       -3.20328135023449
H           28.14597082160417       -4.58152241747436       -2.70908006576022
H           31.99326491314396       -4.19519536133919       -1.45933442761309
H           33.86542189873715       -2.27990919969666       -1.13761774274997
C           21.98665700704901       -0.03357504810197        0.12557354792880
C           20.76544424094846       -0.03172280345581        0.11516492948133
C           23.33749321168625       -0.02279068121641        0.12656807329951
C           24.55866742155342       -0.01321142390529        0.12007141156685
