304
 energy: -537.542237812776 gnorm: 0.000775122472 xtb: 6.5.1 (b24c23e)
Fe          42.94162119514546        0.14581028969081       -0.11580557346799
C           39.56659560768826        0.39188085439934       -0.31764279868615
C           40.21659289429957        1.19697581648693        0.59471558439044
C           39.53973891990501        2.11645999424808        1.45934682438651
C           40.48405336177335        2.65854804208277        2.26348640415772
C           41.73911696088443        2.08313042440612        1.87652925676303
N           41.56202445776209        1.19128077905155        0.85361922646042
C           42.94963314918129        2.38163911217485        2.48964525969074
C           44.15792244431137        1.84557275427968        2.07394540049905
C           45.42260509847684        2.20492698776013        2.64285435327446
C           46.37296706982288        1.56961382777320        1.91695370156785
N           44.33717516764488        0.97818499822494        1.02193903448625
C           45.68614658109159        0.81705945775071        0.91348779746902
C           46.34849429017684        0.04270749050072       -0.04631962877840
C           45.67636630512842       -0.74739714723051       -0.98597740953623
C           46.35429362794599       -1.60783100745929       -1.90544714108101
C           45.39583169358616       -2.28851106921288       -2.57752015000563
C           44.13415875124556       -1.82458915755990       -2.08271616667379
C           42.90969499761402       -2.29587350768783       -2.52892814744135
C           42.88865279571901       -3.37089355906512       -3.55935347422116
C           43.28708474050917       -3.10608028256952       -4.87619105647952
O           43.67513956086690       -1.82935169021943       -5.13385029615425
C           44.10631933207216       -1.45882423493048       -6.42766171962317
C           43.26119026292161       -4.11654915073022       -5.83696519662415
C           42.84109326021633       -5.38783198237342       -5.47606972304362
C           42.44236603038220       -5.67327681486183       -4.17903826432711
C           42.46265436678954       -4.66171914560550       -3.21929784550747
O           42.09517655539866       -4.84237169373574       -1.92371477837616
C           41.65390815366283       -6.10725197711267       -1.47382972282381
C           41.69611193098371       -1.79092063834221       -2.07872795167465
C           40.42350739825780       -2.19908277754586       -2.59865848130808
C           39.48901226599651       -1.42247482755334       -2.00208166337292
C           40.19080376713876       -0.54925351453421       -1.10996875964798
N           41.53872526419131       -0.78992147537233       -1.15872372188505
N           44.32463952003443       -0.87732122600894       -1.10415528281435
C           42.95557874685470        3.34422865982458        3.62601160122855
C           43.21251856021761        2.89751222748905        4.92878977612614
O           43.43428468582103        1.56397112611304        5.06522203325562
C           43.70832874203109        1.00961497209746        6.33591102499711
C           43.22131452283906        3.79804291089373        5.99364243860824
C           42.97993807102983        5.14159739160370        5.74994220995051
C           42.72757510579073        5.60718847484744        4.46833606508958
C           42.71334905368085        4.70625085196954        3.40403260571489
O           42.48328787835221        5.06518068403076        2.11360326491319
C           42.24567869201812        6.41697907149919        1.77708312631256
H           38.48923763609215        0.48608455708371       -0.39786766396882
H           38.47677821381978        2.29958088753706        1.44538875638898
H           40.35697852345741        3.38478764509448        3.04979972192261
H           45.55405987977871        2.86929703842644        3.48133467443651
H           47.44415621677477        1.59722189050632        2.03697825643722
H           47.42586830788318       -1.68123231865928       -2.00021711642475
H           45.52004886126610       -3.03564672609799       -3.34418464643299
H           43.30982879533516       -1.59091278934748       -7.17002527004650
H           44.36940097581502       -0.40109721877212       -6.36863658564714
H           44.98852399940556       -2.03256249922481       -6.73672074032888
H           43.56345114219340       -3.92168521488179       -6.85720623633897
H           42.82331706898412       -6.17393758925034       -6.22296356456890
H           42.11989500575552       -6.67423473787093       -3.92543513432766
H           41.41916834134232       -5.98773264612512       -0.41454308144531
H           40.75253920835418       -6.43172997375041       -2.00794851973552
H           42.43535941930849       -6.86861920305588       -1.58593712449859
H           40.28014583885086       -2.97341305644922       -3.33485337446444
H           38.41896785559799       -1.42614505908207       -2.13850192079574
H           43.85377801643754       -0.06021307080131        6.17539572519224
H           42.87132206623534        1.15938678933685        7.02868992322577
H           44.62019930510106        1.43559358750222        6.77180794909382
H           43.41460658076024        3.46293718284688        7.00387239483098
H           42.98932968804331        5.84209300415748        6.57780487270314
H           42.54510645955805        6.66122707981458        4.30725742902264
H           43.10137408852998        7.05192598898029        2.03687583799218
H           42.09807186260110        6.43912944950365        0.69577267533530
H           41.34538083801011        6.80212926120130        2.27120341106169
Fe          90.91652599753600        0.05134011359007       -0.13399367913654
C           94.29079946018591        0.33500353098435       -0.33243017013567
C           93.66147594126483       -0.50082343594567       -1.23172487793879
C           94.35876561040385       -1.26502070662354       -2.22210719770344
C           93.41846143306897       -1.94342765008299       -2.92050538813254
C           92.14670074076840       -1.57708281740433       -2.36846964162534
N           92.31097358234308       -0.71440698735603       -1.31856728233200
C           90.92885359342480       -2.01492978799834       -2.87436190051176
C           89.70866777246381       -1.62705413797800       -2.34373994152477
C           88.44402129894175       -1.99319487388882       -2.90805939818385
C           87.48999211850716       -1.43323745759772       -2.12677157279363
N           89.52506061098333       -0.84151762405019       -1.23045665232013
C           88.17440369557492       -0.73448894329538       -1.08346873803220
C           87.50979046471896       -0.10143044441395       -0.02597771513634
C           88.18219475823707        0.53970682607100        1.02205747334060
C           87.50805079911999        1.11915768338879        2.14229485528567
C           88.46356844589553        1.67851638592350        2.92210228701723
C           89.71698979703915        1.45255213016855        2.26646858606088
C           90.92595979627731        1.94890830230935        2.72576679177820
C           90.93193710897380        2.78039140688609        3.96110027205512
C           90.37913894758188        4.06799399574249        3.94846146474577
O           89.86254898137709        4.47979057275233        2.76128586407080
C           89.27425356979201        5.75897053660585        2.63967403093263
C           90.39064210738667        4.85082633851751        5.10242536311015
C           90.94999309597402        4.34088676937522        6.26432241181412
C           91.50126004291144        3.06899186663627        6.30067351357690
C           91.49552989727583        2.28789601145442        5.14531332632162
O           92.00599318454097        1.03037053947796        5.08056049015890
C           92.58467300363654        0.43255224633585        6.22284342354135
C           92.13147188981898        1.73252713955344        2.06941480814077
C           93.38056452393882        2.29694887262922        2.49029119032206
C           94.32080248702742        1.86001798883178        1.61986101207778
C           93.64493082787386        1.02607733232104        0.67168363601047
N           92.30394934625727        0.96921431238639        0.94726642208898
N           89.52869301290508        0.72526880051346        1.11427141487417
C           90.93190181861431       -2.91966147637013       -4.05673420787714
C           90.52581392482095       -4.25450477812153       -3.92526261690663
O           90.15513954537623       -4.64127715653286       -2.67684777981359
C           89.71038592577062       -5.96117465603407       -2.43738306974230
C           90.52903585644769       -5.10445470614836       -5.03084766140820
C           90.93090128384689       -4.61446478834670       -6.26419470677476
C           91.33163187415970       -3.29608430844193       -6.41942307611331
C           91.33439672267077       -2.44717202326216       -5.31309208967998
O           91.70101418719287       -1.13967457606676       -5.36623705047949
C           92.12090078811505       -0.56178536543258       -6.58556573471648
H           95.36758034729871        0.43971933392436       -0.40727964824475
H           95.43021366909763       -1.27152631636768       -2.34685591452957
H           93.55803979642728       -2.62627203185829       -3.74279645703266
H           88.31592946767239       -2.59737944206328       -3.79145478920987
H           86.41786042608872       -1.48586259834488       -2.22876205209374
H           86.44161861594837        1.08910676137859        2.29869463510701
H           88.34307464971000        2.20545845543734        3.85462631606829
H           90.00033763299815        6.55602240111851        2.84080117062735
H           88.93198322280155        5.83834143150196        1.60620567301041
H           88.41592903648969        5.87207803788739        3.31298398292179
H           89.97059090630290        5.84771818830449        5.10225786219073
H           90.95703494735406        4.94915987515569        7.16214774326563
H           91.93003856584866        2.69696112022956        7.22152692132603
H           92.90906221607193       -0.56263475608051        5.91324241402338
H           93.45355361948259        1.00047511893431        6.57714827598390
H           91.85735737540003        0.33688019775012        7.03818613104487
H           93.50599338027503        2.94378487729988        3.34358200486970
H           95.37940188776572        2.06692457794704        1.60702967355836
H           89.46002605930772       -6.00905338603512       -1.37601106452100
H           90.49497737510823       -6.69580802245966       -2.65585786416005
H           88.81759522365786       -6.19753181186184       -3.02897933568060
H           90.22276227678066       -6.13784240896030       -4.93866041917877
H           90.93136882439492       -5.27499775886902       -7.12431893930172
H           91.63702726209809       -2.94007642408319       -7.39420197944508
H           91.32613871081605       -0.59468553776214       -7.34066478279925
H           92.35954684371195        0.47955194227013       -6.36153156020999
H           93.01558752225175       -1.05944075181210       -6.97910820184111
C           51.54759082798843        0.03873066958520       -0.04384443586537
C           50.31771604627424        0.03407999331112       -0.04837829696738
C           48.97559211630188        0.03437048882761       -0.05013515149357
C           47.75026629241741        0.03650032544419       -0.04716152767511
C           52.88958632759985        0.03843682977489       -0.04504157246493
C           54.11509862203710        0.03588694827507       -0.04018520702066
C           67.55694670739574       -0.06500595141160       -0.02565116280711
C           66.32585031095158       -0.06809143287792       -0.02522240759886
C           64.98593112189482       -0.06690870932373       -0.02562117084229
C           63.75940419934336       -0.06118115521903       -0.02725630442743
C           68.89679384686563       -0.05969746720631       -0.01962387071535
C           70.12332940941749       -0.05067266093091       -0.01664693248181
C           83.54265420029556       -0.13281777718512        0.01671437998290
C           82.31211673064594       -0.13049983708229        0.02422915986591
C           80.97117163844371       -0.12081915941048        0.02799228627957
C           79.74511642198878       -0.11049655276161        0.03016136260424
C           84.88375571526106       -0.13111883345989        0.00553884634871
C           86.10958810672109       -0.12412375246557       -0.00609853911544
Fe          58.93876634603325        0.00093797256360       -0.03376779101483
C           55.51630827365025        0.02880271193729       -0.03824748561947
C           56.18264829737498        0.07010618301680        1.19233793865416
C           55.49653843646070        0.10792051235474        2.44565048671376
C           56.45013992189010        0.12019139823950        3.40759591655791
C           57.71407946670940        0.09607147704176        2.73564798904967
N           57.53345371826367        0.06241090846762        1.37465804666204
C           58.93485099408609        0.07793268819409        3.39650605347525
C           60.15605784943485        0.02990060257128        2.74064490025380
C           61.41878616041009        0.03563876266185        3.41569045022892
C           62.37436897741068       -0.00095745424808        2.45647931324724
N           60.34053759820429       -0.00122399661947        1.37905596863430
C           61.69070470633911       -0.02209007403678        1.20129079580564
C           62.36061298199103       -0.04791790997345       -0.02899171133426
C           61.69368541062513       -0.05357612462818       -1.26109772740880
C           62.37969252665334       -0.08697453241445       -2.51480748348626
C           61.42597990357796       -0.08460340704890       -3.47664502341075
C           60.16248327237361       -0.04586120042021       -2.80427425747146
C           58.94253190576359       -0.05183676577200       -3.46357065737811
C           58.94520483092679       -0.06484390604649       -4.95271425076207
C           58.54841926750169       -1.21194407143591       -5.65251719886295
O           58.18141674325025       -2.27423821279519       -4.88947377149356
C           57.76533696572956       -3.48202449937709       -5.49436779863361
C           58.55607876348206       -1.22352435335270       -7.04698652882641
C           58.95399683693014       -0.08678954834367       -7.73428689354364
C           59.34722059955416        1.06087759418637       -7.06262122485349
C           59.34601824187168        1.07132722144010       -5.66815430791818
O           59.70783565720038        2.14560221852556       -4.91968553357910
C           60.12846230972614        3.34360774320122       -5.54071645946765
C           57.72003784769551       -0.04788873480087       -2.80657227785905
C           56.45807477655418       -0.04357597226411       -3.48246690229373
C           55.50200518031593       -0.02897587699614       -2.52297876809272
C           56.18504349864345       -0.01535809059311       -1.26740344339983
N           57.53630249571560       -0.02619068660432       -1.44578251468592
N           60.34398301491670       -0.03195394643015       -1.44211384553880
C           58.93268559039911        0.10883462090664        4.88510247135264
C           59.32779872593144       -1.01901522320556        5.61719002933378
O           59.69134142430351       -2.10394520525868        4.88498041611072
C           60.10902989222073       -3.29363386149129        5.52371831059283
C           59.32183239656295       -0.99131572103435        7.01138325443423
C           58.92625946144483        0.16467917756391        7.66709354844583
C           58.53412605847489        1.29350715908827        6.96368839075615
C           58.53472958590969        1.26518602319047        5.56949768910932
O           58.17544837448504        2.31995990139605        4.79243330113642
C           57.75290344953945        3.53359982092465        5.38087429754220
H           54.42431699634939        0.11854687757697        2.55817264950720
H           56.32013154639115        0.14142137844599        4.47716140479744
H           61.54635245516710        0.06593585632849        4.48535139615388
H           63.44632550629901       -0.00910475936131        2.57183278622433
H           63.45169023345278       -0.11236143166412       -2.62727725960873
H           61.55445381618116       -0.10988990648232       -4.54640705612469
H           56.87308480433317       -3.33396954092380       -6.11470025055473
H           57.52430248113357       -4.16347666489175       -4.67648120335429
H           58.56328399992113       -3.92067067370586       -6.10565012705124
H           58.25597620198202       -2.10519592914226       -7.59721862062595
H           58.95771525773910       -0.09547116069831       -8.81872111593239
H           59.65072158678529        1.93377647621053       -7.62484841984044
H           60.36537056697689        4.03737666021927       -4.73203326172635
H           59.33447584450877        3.77346238634342       -6.16328194622061
H           61.02414692731217        3.18526287298217       -6.15349115194597
H           56.33174278838294       -0.04986640917517       -4.55271256767149
H           54.43007145651649       -0.02136857677370       -2.63843852354852
H           59.31300411259981       -3.71409831710642        6.15001328419860
H           60.34748390786811       -3.99870924091546        4.72533629571650
H           61.00326595184257       -3.12767180946871        6.13662187958965
H           59.62129072614873       -1.85770065426797        7.58571474758659
H           58.92355870954485        0.18636259657728        8.75133845501283
H           58.23193700095096        2.18214851355126        7.50141361990289
H           58.54396734382308        3.97843983611364        5.99656328338556
H           56.85386127503525        3.39143562388563        5.99272462011424
H           57.52085623587624        4.20693639791752        4.55373039435120
Fe          74.93360402187771       -0.03914669437308        0.00750242043253
C           71.52150913024123       -0.04172955028956       -0.00951950747315
C           72.18816046056280       -0.18012856207534        1.21586088618629
C           71.51228698758061       -0.35490132543280        2.46324305260091
C           72.46354332772498       -0.31132862182646        3.42767297147793
C           73.71513781337936       -0.10505346202297        2.76391944774958
N           73.53272723599325       -0.06866993868872        1.40287654863731
C           74.91886770240646        0.10411266338420        3.42254638432104
C           76.12993889416369        0.25167369112020        2.75925031831878
C           77.37780445749314        0.50243427296793        3.41423590726665
C           78.33851063845776        0.44487204074372        2.45965728240206
N           76.32357080041464        0.09259976483841        1.40904967486631
C           77.67168260987857        0.16809400077097        1.22615597257968
C           78.34581550103201       -0.09104615142012        0.02503805604053
C           77.67587869792082       -0.32000950955228       -1.18447028651159
C           78.34670002109732       -0.59648934571826       -2.41597030332099
C           77.39649098715138       -0.59475859345989       -3.38272110273388
C           76.15063918645333       -0.31499704995833       -2.73586387738851
C           74.95175543344372       -0.12000895069968       -3.40929991974560
C           74.96609429098211       -0.13425209883749       -4.89712358727463
C           74.34568951624867       -1.17234314693025       -5.60539100544919
O           73.76128665111992       -2.13902855006919       -4.85110761895863
C           73.10085817863779       -3.22734914238913       -5.46532438303893
C           74.36367991388941       -1.18199102914024       -6.99975264810777
C           74.99526959826476       -0.15135899005425       -7.67922848555860
C           75.61302898054913        0.88755673607323       -6.99967080282266
C           75.60193445554488        0.89488749121652       -5.60530291854127
O           76.17015843285608        1.87058138900029       -4.85066915571774
C           76.83924303229411        2.95453019694946       -5.46325874250726
C           73.74300938868348        0.08521738640383       -2.75957496807142
C           72.49795529175398        0.30438699311006       -3.43151993855811
C           71.53552854621394        0.31392088723510       -2.47723196276701
C           72.19902740619219        0.11364232627191       -1.22707071334235
N           73.54579450570381        0.01433909425061       -1.40157021602082
N           76.33328517849090       -0.19286263080694       -1.38073769490561
C           74.91110770596127        0.16609369635728        4.90913318929292
C           75.52278190837437       -0.84475017365892        5.66348419192254
O           76.09242149560244       -1.85280063119021        4.95359102008044
C           76.73106634523059       -2.92580911445764        5.61595736255974
C           75.51017033738778       -0.78920140852502        7.05677916503776
C           74.89184210714926        0.27849580267723        7.68955517917883
C           74.28206779695276        1.29075986678578        6.96414259582445
C           74.28811676234653        1.23324407741977        5.57086862995519
O           73.72518698706020        2.17827549531081        4.77413351358351
C           73.06224491653242        3.29143046952861        5.33916810186006
H           70.44747728232258       -0.48567113214028        2.57122448893289
H           72.33957154126625       -0.40249382241134        4.49447818677761
H           77.49328378052142        0.68798558770477        4.46970120464906
H           79.40409664502550        0.57050098285121        2.56629380651215
H           79.40804838471291       -0.75968014948553       -2.51334247572201
H           77.51728395098762       -0.76098392968921       -4.44085855794336
H           72.26626194554439       -2.88904691167383       -6.09123565416399
H           72.71256031553233       -3.84404405687044       -4.65273036653773
H           73.79103738382051       -3.82489659144277       -6.07306657794521
H           73.89223441092714       -1.98097159480266       -7.55609076158545
H           75.00627107605727       -0.15793562163826       -8.76361879567336
H           76.09615551724704        1.67970115564794       -7.55575676920530
H           77.20648365806554        3.58271772902680       -4.64966457385213
H           76.16005093541447        3.54144160770881       -6.09333576613613
H           77.68906793635834        2.61266866353565       -6.06628105281765
H           72.38541486904410        0.42317598243283       -4.49686471151791
H           70.47114847366157        0.44114284720386       -2.59359398981976
H           76.02996713719948       -3.47909479374799        6.25243111431150
H           77.10273868223877       -3.58786082037320        4.83176446414566
H           77.57511688389715       -2.57750429060784        6.22339676710429
H           75.97534478807870       -1.56642924196081        7.64809729952417
H           74.88456747780141        0.32246824687790        8.77310159416030
H           73.80850993807532        2.11251996594195        7.48433210280010
H           73.74541545176221        3.90316452178618        5.94065556401623
H           72.21265098886163        2.98040819258605        5.95905851834046
H           72.69524403177441        3.88407246100741        4.49922746101728
