360
 energy: -625.326910398817 gnorm: 0.000635468206 xtb: 6.5.1 (b24c23e)
C           87.84528550092077        0.05279042276960       -0.04982054400393
C           88.45968346463445        0.81690805132356       -1.03539958255714
C           87.82226513728968        1.61253015433796       -2.02684193438010
C           88.79770371399187        2.19532725093864       -2.78872825523226
C           90.05653897760705        1.77094293409004       -2.28485735714732
N           89.80725096938046        0.94416576350226       -1.23167294747916
C           91.32882457556843        2.12609115093305       -2.76738826041517
C           91.36225891424314        3.00781196777482       -3.87048655781457
C           91.38690748509629        3.77042139258193       -4.81410703587137
C           91.42478418050058        4.66030072180197       -5.91172801938773
C           90.24904595464669        5.11114157816321       -6.52323160803365
C           90.34212148781268        5.98233510764365       -7.59388069695174
N           91.50217237179835        6.41943814228716       -8.07750581979374
C           92.62432319889292        5.99613873240488       -7.50124752992210
C           92.64077736440200        5.12494746688369       -6.42668044172710
C           92.55273281543022        1.68152160747128       -2.24108125718142
C           93.83946896879887        2.07750571582218       -2.77847850653896
C           94.77232699121267        1.46415400984065       -2.02010034400228
N           92.71620377639641        0.84805067909869       -1.18508810104535
C           94.05051198429757        0.69670197147561       -1.02351283663092
C           94.69039147351363       -0.06492946700866       -0.02890080524769
C           94.05178594654210       -0.81438345031579        0.97714921755817
C           94.68171389254694       -1.60246089568950        1.97524388478948
C           93.70178086647870       -2.18425362300753        2.73363200597368
C           92.44761195363577       -1.76749216148755        2.21701855342717
N           92.70546393109797       -0.94146918128669        1.16054871202026
C           91.17626946898059       -2.13470659279813        2.69215554622066
C           91.14225131061140       -3.01386377025033        3.79603283225817
C           91.11549769901292       -3.77449214759281        4.74153952582661
C           91.07686503042973       -4.66225646529644        5.84046183686507
C           92.25318744331769       -5.14557579072949        6.42589818949033
C           92.16006458208169       -6.01419826147051        7.49855169236146
N           90.99948636700786       -6.41885410278205        8.00849208553085
C           89.87680054256003       -5.96408406292879        7.45758859327313
C           89.86029432365648       -5.09305323897982        6.38296451436983
C           89.95119410808516       -1.70119872032545        2.15422795301391
C           88.65735900870177       -2.10073717656194        2.68007979244187
C           87.73104336521793       -1.48872237963794        1.91454267966064
C           88.46217069407429       -0.71878564439181        0.92322399996621
N           89.80138842267255       -0.87318936719021        1.10142387935219
H           86.76014855976743        0.06919745224341       -0.04946500828789
H           86.75447203094373        1.71834888043828       -2.13304694766812
H           88.66728677637251        2.86084242401581       -3.62699861548129
H           90.52100635617006        0.48873541260294       -0.67280510725290
H           89.28302067256594        4.78043145527697       -6.16123678038431
H           89.44626721749252        6.34762781585696       -8.08752748581496
H           93.55302275645214        6.37292498373944       -7.92035356652454
H           93.57807722616197        4.80564222544668       -5.98723131308158
H           93.98053534031408        2.73671636051783       -3.62009278702666
H           95.84616818506370        1.51547594418844       -2.10221823337070
H           95.74805888811437       -1.71052110084360        2.08942767930989
H           93.82888424854355       -2.84565439234702        3.57545102618002
H           91.99489250207709       -0.49319075136615        0.59162073559109
H           93.21964310971498       -4.84199749462912        6.04188166987897
H           93.05642237870094       -6.40465469325326        7.97184731926535
H           88.94778592379454       -6.31444556447803        7.89810022857546
H           88.92252922309866       -4.74765790924249        5.96481870743851
H           88.51134877640004       -2.75943196950031        3.52145192791449
H           86.65574121939845       -1.53341397576015        1.98698737704091
C          149.48143548269911       -0.12859342779517        0.06601019631115
C          148.88040523322530       -0.80454859720425        1.12170080387186
C          149.53073814467896       -1.49061263231469        2.18399179369489
C          148.56482278846019       -2.01518063149601        2.99850975980644
C          147.29921235412232       -1.66376085964692        2.45676789714040
N          147.53499355213447       -0.93587836714713        1.33020155586632
C          146.03321640518124       -1.99996118371312        2.96857866276341
C          146.01557058376073       -2.77477560553263        4.14963619652100
C          146.00375350935099       -3.44128055243117        5.16365700010811
C          145.97964873080878       -4.21873851063884        6.34390234938047
C          147.16268672634288       -4.65798930260636        6.94977324532989
C          147.08279557667569       -5.41792528833328        8.10309998607870
N          145.92897405269434       -5.75640017100984        8.67288405268074
C          144.79988070815131       -5.34266868793979        8.10309371524604
C          144.77023296745827       -4.57953968986490        6.94959483725771
C          144.80093790707579       -1.63494590426403        2.40230197711955
C          143.52312126125253       -2.02397331224031        2.96520023107520
C          142.57755276031327       -1.49839944761742        2.15828034558596
N          144.61939533225490       -0.89291457039754        1.28265615054141
C          143.28221302725558       -0.78863714140551        1.10847454343678
C          142.62588113477292       -0.10939728598830        0.06523471692176
C          143.25258469940437        0.57462368732740       -0.99428611323434
C          142.61154454228574        1.28215056072496       -2.04392322492581
C          143.58255725661346        1.80258063419870       -2.85638153622923
C          144.84263812546010        1.42955395399606       -2.32123575451745
N          144.59694778857144        0.69123602850056       -1.19894327999782
C          146.10720661943222        1.75753740726291       -2.84121149520540
C          146.12399343013504        2.52805071780606       -4.02393342464429
C          146.13881599944392        3.18987346458146       -5.04128155062507
C          146.16110766922148        3.95950010973308       -6.22634502704210
C          144.97662649913147        4.37103518707723       -6.84886258540401
C          145.05485414664923        5.12213949953979       -8.00803143931658
N          146.20823708872916        5.47779216305142       -8.56822334258749
C          147.33868539443270        5.09088193308115       -7.98237955087572
C          147.37011157357924        4.33836027014234       -6.82205420428320
C          147.34085507255224        1.38428597957247       -2.27846391183520
C          148.62632039347741        1.74744872346592       -2.84933308705262
C          149.56499574984127        1.22092542713437       -2.03670828449125
C          148.84966055624307        0.53851885029343       -0.97249543514023
N          147.50753380471610        0.65920342846655       -1.15469003684497
H          150.56666132434131       -0.12899219780257        0.06278820173242
H          150.60011406210222       -1.56698016312483        2.29912615793939
H          148.70586164188015       -2.59526351994813        3.89640286410770
H          146.81502795561912       -0.54701279985394        0.73054078381234
H          148.12411889114054       -4.40543461382778        6.51903244213630
H          147.98463957009884       -5.77267597627356        8.59368820156380
H          143.87667511057342       -5.63640063050076        8.59428989680247
H          143.82777661654305       -4.26392805636275        6.51867335270315
H          143.39595664454453       -2.62041121575100        3.85448512862259
H          141.50544265046756       -1.57628786178694        2.23977007191913
H          141.54423903795183        1.38206953236494       -2.15468040230452
H          143.44574692985444        2.39507472706760       -3.74659240085062
H          145.31288856466315        0.29041547170107       -0.60202613378441
H          144.01539951087778        4.10361792679428       -6.42672452717662
H          144.15186019209730        5.45471945596604       -8.51192743401571
H          148.26152328065865        5.39845439369561       -8.46572207387221
H          148.31357326598317        4.04459508687904       -6.37806953212385
H          148.75910628111478        2.32672354055885       -3.74929070929155
H          150.63917511075118        1.27184726568060       -2.12078754578409
C           96.10039262920286       -0.08727496899982       -0.02568496974994
C           97.31670984954781       -0.10684394131909       -0.01757850716954
C          107.05844516759549       -0.14708003987284        0.00555396330547
C          108.27572191960755       -0.14423918628775        0.01496151749572
C          118.03958636086794       -0.14489630104783        0.04189103859189
C          119.25772313577154       -0.14198408404942        0.04594463738447
C          129.02593134812267       -0.10846171631256        0.06306229934326
C          130.24364994203799       -0.10296937649367        0.06816270025902
C          139.99924407702571       -0.10305782950270        0.06339248667490
C          141.21621323832156       -0.10664632038925        0.06670933415003
C           98.72611575455818       -0.12227556978741       -0.01569683497876
C           99.35801621675631       -0.01885971558331       -1.26971830808471
C           98.72607396475357        0.07246193896984       -2.53581092898474
C           99.70579306422312        0.13501544822892       -3.49079136162958
C          100.95992439582770        0.08200806806660       -2.83066357533940
N          100.70439531700934       -0.01005790275716       -1.49310490124617
C          102.22988926654945        0.11881541660320       -3.43578629643831
C          102.24725599553177        0.21409913694651       -4.84536680522038
C          102.25745119464561        0.28723243965816       -6.05668334435598
C          102.27661630095562        0.36809185492566       -7.46773822867656
C          103.48304376040726        0.38388276534848       -8.17754378193189
C          103.44686026856871        0.45952720652052       -9.55850161511138
N          102.31430171497094        0.51897436666431      -10.25442357654450
C          101.16322767577920        0.50523722624263       -9.58701034977862
C          101.08981540359594        0.43160557020811       -8.20747858053328
C          103.46386140000168        0.06868399046933       -2.76913657883341
C          104.73823948931071        0.13535696204446       -3.45673375595632
C          105.68880030146580        0.06363960902195       -2.50139664027832
N          103.65218845623620       -0.04225905052231       -1.43145922082648
C          104.99057974221945       -0.05220273161867       -1.23656492819520
C          105.64995738696911       -0.14793204995566        0.00283904482723
C          105.01636305951759       -0.24483470572111        1.25744258566496
C          105.64656193992163       -0.36267907798598        2.52198112483977
C          104.66634205620214       -0.43465452882170        3.47564828202467
C          103.41284519557996       -0.36717722167667        2.81581905009997
N          103.66987366452122       -0.25476448575548        1.47972906745343
C          102.14346157925742       -0.40791327109482        3.42139336738206
C          102.12607220069647       -0.50885969122685        4.83049162026333
C          102.11272577528300       -0.59019837139419        6.04127745168255
C          102.08680797157139       -0.68291698565728        7.45146402178948
C          100.87574353190321       -0.70696206035717        8.15336589126971
C          100.90286138509455       -0.79719160696312        9.53352491906918
N          102.03102056078244       -0.86316628849944       10.23610665268093
C          103.18629243277404       -0.84086850193522        9.57637880107864
C          103.26878465072794       -0.75248701561566        8.19812471136183
C          100.90881737220259       -0.35461231508803        2.75541415370297
C           99.63379066436742       -0.39812906958618        3.44407329693444
C           98.68357334017703       -0.32291467583904        2.48855720668963
C           99.38331350042951       -0.23514190533123        1.22211479548365
N          100.72200147020146       -0.25672468611308        1.41723200720424
H           97.65945298114606        0.08260516011975       -2.69049154997529
H           99.57744296209501        0.20957451279109       -4.55858185418070
H          101.41228929573619       -0.06940851185539       -0.76872480783153
H          104.42824069537646        0.33670588883837       -7.65032267615813
H          104.36757985759812        0.47286057821245      -10.13464574585858
H          100.25844651940639        0.55520837323619      -10.18598079585508
H          100.13074194930213        0.42262825097394       -7.70377863821526
H          104.86019083281741        0.22890685357652       -4.52399449780808
H          106.76030505237307        0.09124360031486       -2.61580243701604
H          106.71253432538595       -0.39396093443926        2.67668986971513
H          104.79384754086202       -0.52917652728299        4.54193505171590
H          102.96305649618189       -0.18982573935337        0.75476249115495
H           99.93412139864229       -0.65508832083945        7.62025064346765
H           99.97845101961920       -0.81758791037978       10.10351891918018
H          104.08724473167463       -0.89630127870304       10.18059060976189
H          104.23134346670724       -0.73715452508540        7.70124871690194
H           99.51121776710670       -0.47365851740495        4.51270636496435
H           97.61159479356384       -0.31950417702580        2.60395255657060
C          109.68401109424673       -0.14255598437017        0.01698886073586
C          110.31955635324721       -0.59128482639192       -1.15753616718490
C          109.69331466419395       -1.06320229025026       -2.33834687155492
C          110.67692012989227       -1.41415155809799       -3.22447814258693
C          111.92817017118136       -1.16961786251782       -2.60362483516159
N          111.66690580807423       -0.67220790757329       -1.35969119219042
C          113.19917758379421       -1.41344773697988       -3.15650621283348
C          113.21610169544118       -1.93251350250887       -4.47070890567320
C          113.22476102284703       -2.36583213543227       -5.60426537090992
C          113.24178094454568       -2.87091812299385       -6.92432574297546
C          114.44696950782070       -3.16806302685413       -7.57156152879251
C          114.40985191316516       -3.65851385886729       -8.86460625599988
N          113.27739387025404       -3.86433808157453       -9.53226914197496
C          112.12757055714455       -3.58415961534373       -8.92410935420559
C          112.05514762589085       -3.09039967767949       -7.63375367546660
C          114.43374447908208       -1.19385153907998       -2.52647516422406
C          115.70425272974101       -1.50831332604449       -3.14910434439356
C          116.65807962668927       -1.16252858990753       -2.25922370533814
N          114.62806698820661       -0.67316814863237       -1.28993718473105
C          115.96692231437440       -0.63257511661688       -1.10146737383164
C          116.63147789147561       -0.14526432778370        0.04034322354081
C          115.99340710674814        0.34898428911253        1.19626399175066
C          116.61659550445984        0.87080688351231        2.35725467384181
C          115.63249852556483        1.22068547503354        3.24303690628497
C          114.38264294885036        0.92647231187409        2.64154543920707
N          114.64595431450583        0.40670570182418        1.40679323060362
C          113.11234554167861        1.13211602204423        3.21126940577816
C          113.09563920932243        1.65374592629087        4.52444192425538
C          113.08235405764158        2.09214081835716        5.65599369146250
C          113.06057970154696        2.59888783460252        6.97536787843054
C          111.85256613721644        2.86855384299253        7.62928764202847
C          111.88574825471386        3.35946475359027        8.92227487879274
N          113.01693066568737        3.59074807527518        9.58375113541648
C          114.16947163581142        3.33733139714539        8.96903052817744
C          114.24589341400329        2.84578934648842        7.67803950850082
C          111.87668508985317        0.87078652837108        2.59938269064650
C          110.60423743522274        1.12679202813585        3.24516124528537
C          109.65069558253477        0.77463056054250        2.35738303440503
C          110.34526949093417        0.30179226338487        1.17667614248610
N          111.68441017638736        0.37259335109539        1.35393120250960
H          108.62778089509453       -1.13040789696853       -2.48419034549103
H          110.55245923777086       -1.81231345315765       -4.21851380241916
H          112.37039786042718       -0.40437715723067       -0.67940905687525
H          115.39189973519970       -3.01498190346060       -7.06437018178038
H          115.32958406060773       -3.89762055125229       -9.39067418201788
H          111.22289746535485       -3.76368711994062       -9.49787867961222
H          111.09688619474822       -2.87535965454238       -7.17644426336047
H          115.82185439290225       -1.93897541416150       -4.13058969131146
H          117.72762654985260       -1.25586042351680       -2.35117871918178
H          117.68068743963538        0.97060075703406        2.49151948722860
H          115.75545939062070        1.64822038798695        4.22500002152538
H          113.94388152457741        0.10541206330033        0.73912991815019
H          110.90856435945717        2.69421949428139        7.12734414275910
H          110.96383525132532        3.57801295814730        9.45355001277831
H          115.07299706252971        3.53721297905969        9.53770935511305
H          115.20615022370305        2.65287895997382        7.21508831455100
H          110.48548497519022        1.52558627248463        4.23989968469392
H          108.57940841682436        0.82801873209505        2.46453154989935
C          120.66572375992764       -0.13896565879731        0.04631671270324
C          121.30423035683087       -0.28690969319649       -1.20190611606718
C          120.68282516474244       -0.41121471310248       -2.46942907484457
C          121.66770257822770       -0.56734366938768       -3.40830440978459
C          122.91611480547637       -0.53614086088518       -2.73690371732763
N          122.65151079868426       -0.35658373414573       -1.40965247354053
C          124.18580774523903       -0.68905435285040       -3.32470780861618
C          124.20175421873634       -0.92584544844192       -4.71773826179548
C          124.21468246178021       -1.13086657668540       -5.91379430155667
C          124.23278104397801       -1.37368727501590       -7.30618568588053
C          125.43418041772236       -1.59841105490153       -7.98857525345299
C          125.39656600204238       -1.83439252224493       -9.35126783834290
N          124.26721370048236       -1.85851708615952      -10.05453332461896
C          123.12103194476529       -1.64487952501853       -9.41341176352961
C          123.04939503360556       -1.40051520423799       -8.05358736024636
C          125.42038274204201       -0.62982541468470       -2.66017643050189
C          126.69032673087435       -0.82368715079394       -3.33168490112474
C          127.64491744944179       -0.66378689959617       -2.39109202394132
N          125.61523923055880       -0.36769618932715       -1.34467916588169
C          126.95400511431821       -0.36946218580256       -1.15191913163976
C          127.61796475395352       -0.11448721528343        0.06279201325017
C          126.98067620827271        0.13703715835323        1.29435432423807
C          127.60324204133185        0.42416081001693        2.53474607748577
C          126.61857860005622        0.57732666911308        3.47442980451765
C          125.36978789061469        0.39176455848862        2.82887752124872
N          125.63362771821714        0.13552291118465        1.51435126351093
C          124.09968246298530        0.43803613598683        3.43337694470802
C          124.08197317778672        0.67981406863978        4.82548370086550
C          124.07029088569722        0.89392257830936        6.01994804083938
C          124.05014238311993        1.14404484637970        7.41096894508639
C          122.84343045553734        1.22465436450802        8.11603437412197
C          122.87770812392394        1.47367712845161        9.47642813291694
N          124.00878925118872        1.64222168542388       10.15677829844360
C          125.16002758968757        1.56669627303847        9.49393796693088
C          125.23530208763630        1.32220016596819        8.13428391472945
C          122.86599774949838        0.26898324264155        2.78619662754325
C          121.59730006974530        0.29206783860374        3.48672636501775
C          120.64273491045519        0.12635657434382        2.54724364215048
C          121.33155578066174        0.01047717650615        1.27801315891198
N          122.67013387139002        0.08663960971370        1.45729480869909
H          119.61946640425415       -0.37931086265437       -2.63845752581712
H          121.54579391707944       -0.69123111687911       -4.47222691540497
H          123.35255336932880       -0.28680760254575       -0.67950893096883
H          126.37664547193840       -1.58807753192887       -7.45450127095407
H          126.31326320189628       -2.01297677758900       -9.90586822169316
H          122.21882698534972       -1.67110787230282      -10.01770330441509
H          122.09427049603298       -1.23181608468226       -7.57100029981152
H          126.80699356824273       -1.05296253776259       -4.37880788066523
H          128.71452098916291       -0.74094837641960       -2.49898300037124
H          128.66701184800539        0.50723903129965        2.68415387804082
H          126.74079039652806        0.80006727228855        4.52208782941115
H          124.93214491425110       -0.03216358863774        0.80074832262337
H          121.89959981327209        1.09384464772116        7.60061811610437
H          121.95674618292219        1.54189652983310       10.04831520151908
H          126.06348866497309        1.70903286746184       10.07986829827013
H          126.19461894373720        1.26903793987692        7.63375526137775
H          121.48147190370661        0.41497303810572        4.55165764373199
H          119.57422272367437        0.07609831218495        2.67709967183899
C          131.65179909374257       -0.09866662955244        0.06680420872069
C          132.28396143589202        0.09601450678281       -1.17767587932534
C          131.65384086793404        0.31414315756605       -2.42859347538881
C          132.63342158064407        0.43927204836248       -3.37744380682425
C          133.88679965051443        0.30547774792060       -2.72775128935912
N          133.63020831967452        0.10520936560751       -1.40179470579591
C          135.15468954911572        0.35410517808295       -3.33612937141075
C          135.16710785594100        0.53406370918780       -4.73752728783805
C          135.17514011191690        0.68454009192149       -5.94168536690750
C          135.19211819968700        0.85817515162620       -7.34439016877235
C          136.39425330429944        0.85063471183333       -8.06173790969838
C          136.35662982405560        1.02302088619769       -9.43390193298067
N          135.22671596414216        1.19855717037592      -10.11434530840480
C          134.07984712631639        1.20710336595295       -9.43975493019556
C          134.00804290910159        1.04242117780563       -8.06798114063700
C          136.39161208650285        0.23869798685848       -2.68264149721140
C          137.66212235809789        0.28275259067376       -3.37935905756336
C          138.61758688656073        0.15777383684123       -2.43434135738023
N          136.58650770128315        0.08701576798848       -1.35043340248755
C          137.92606829838329        0.04112471172426       -1.16609639271093
C          138.59033777966971       -0.10153731998333        0.06556611067491
C          137.95995378431357       -0.24493320354677        1.31703886757840
C          138.59149346541656       -0.36460672688710        2.58054850996170
C          137.61206595488233       -0.48364565557171        3.53050709745857
C          136.35814346802167       -0.43650945212735        2.86981142433070
N          136.61362888819357       -0.28882597015208        1.53725952323043
C          135.08942106429447       -0.53641041934815        3.47088829054647
C          135.07767287723956       -0.70589551529858        4.87364317484921
C          135.07385218851451       -0.84675788710134        6.07898448032466
C          135.06509063268990       -1.00811800720647        7.48318787824014
C          133.86384341585210       -1.10709243921496        8.19517058478894
C          133.91023388282619       -1.26302923346266        9.56899887115210
N          135.04807430543565       -1.32458287721249       10.25613945840340
C          136.19420548155699       -1.23141914382312        9.58669520797826
C          136.25743696101023       -1.07391270800739        8.21366302497895
C          133.85320811954270       -0.48252034149465        2.80898816255472
C          132.58334108440994       -0.62665657957923        3.49302695357216
C          131.62781462004745       -0.50923335037440        2.54722312340963
C          132.31790483468114       -0.28736020031862        1.29243674825968
N          133.65707056478655       -0.28555599279237        1.48224930987245
H          130.58842854949745        0.37278227110554       -2.57794371223188
H          132.50536312876588        0.61113389582212       -4.43396928730079
H          134.33656411514198       -0.01950908123472       -0.68421853304072
H          137.33717584762329        0.71066970362780       -7.54705012683146
H          137.27401733102707        1.02063501289534      -10.01555345740770
H          133.17714331913507        1.35250772177281      -10.02615183527327
H          133.05227883704109        1.05569217906572       -7.55810205087628
H          137.77859067693808        0.39221658068024       -4.44571218623562
H          139.68815353352258        0.13637951644552       -2.55891792977168
H          139.65748352658025       -0.35469214936078        2.73824711224179
H          137.74086238198157       -0.59310440235389        4.59520974047074
H          135.90672607311700       -0.21786171640413        0.81293738235696
H          132.91479848126278       -1.06157373897749        7.67479172771940
H          132.99378357107375       -1.34228262309415       10.14665796960559
H          137.10353283633748       -1.28552568238378       10.17834399024157
H          137.21295687458880       -1.00206231698814        7.70821797986472
H          132.46757849047793       -0.79854936420760        4.55118625267361
H          130.55787326053667       -0.57037035569564        2.66181800399602
