177
 energy: -321.557101454402 gnorm: 0.000992829758 xtb: 6.5.1 (b24c23e)
Cu          33.68389988441506       -0.02400339928860       -0.04833746110838
C           30.27862656961488       -0.07016705537867       -0.09491433933002
C           30.91870494198533       -1.29907617995659       -0.03579969430157
C           30.24805659844109       -2.56456914886544        0.05115172145126
C           31.21040932548625       -3.51834769411579        0.10962697389584
C           32.47891799212722       -2.84453861124141        0.04572408319239
N           32.27000347328878       -1.49721024184597       -0.03162568685264
C           33.72585780680117       -3.47310787216599        0.07969430608362
C           33.74749129888887       -4.95535518477983        0.15827139031597
C           33.19613437355228       -5.73100974114903       -0.86162820906076
C           33.21902219669174       -7.11549746506621       -0.79013290005146
C           33.79250546800275       -7.74115677828855        0.31420146650811
O           33.83444689422086       -9.09447157114308        0.42542844413650
C           34.34366514327046       -6.97818792066845        1.34179295176127
C           34.32178558442719       -5.59722841989537        1.25815331649661
C           34.95628513746519       -2.81275744555981        0.04968259744689
C           36.23592454920018       -3.46279509020060        0.02711041726005
C           37.17806724351429       -2.48646002072178       -0.00469334096415
N           35.13981114948853       -1.45609773791076        0.01473295854595
C           36.48306760261872       -1.23436892354907       -0.01005356918379
C           37.11224463320723        0.02160245412428       -0.02371507106820
C           36.45067678832086        1.26060442539801       -0.03603649356239
C           37.11324774073460        2.52893332247589       -0.08899937001419
C           36.14580954796121        3.48027130035784       -0.12433893636332
C           34.88300011912310        2.79876640495707       -0.08730932638342
N           35.10180870826348        1.44764749578237       -0.03829433332842
C           33.63572652280952        3.42564867302597       -0.13502736456681
C           33.61532960101627        4.90966507594518       -0.17089276446182
C           34.13636049180325        5.65363964315072        0.89020555971842
C           34.11519619609049        7.03706481534194        0.86393407940365
C           33.57435693734146        7.69886609160231       -0.23661751272696
O           33.57164588257847        9.05746539105311       -0.23222452339436
C           33.05482517465181        6.97046467519786       -1.30412963449327
C           33.07420429343716        5.58476139284641       -1.26530299460055
C           32.40605389055071        2.76323622263378       -0.15292994495994
C           31.12018163652175        3.40651629675019       -0.15621707727761
C           30.18299481014409        2.42625330767731       -0.15147545682959
C           30.88647341670089        1.17582686478148       -0.13490305110585
N           32.23214606494824        1.40887190065880       -0.13572445758769
H           29.19352332291235       -0.08426513255025       -0.09399838300568
H           29.17710118729052       -2.69199450377314        0.07310233838655
H           31.07935692909349       -4.58470678370438        0.20021427999243
H           32.76101191725726       -5.24547298334944       -1.72810571392057
H           32.79470697197723       -7.71365285185052       -1.58945454322235
H           33.42051452995725       -9.52323501139478       -0.33548894498112
H           34.78284992000469       -7.47773575541076        2.19647156215238
H           34.74018863331452       -5.00359084947108        2.06329801895016
H           36.39080993904054       -4.52960448787510        0.02321557938198
H           38.25037652359297       -2.59710578202798       -0.02331366728884
H           38.18261330255351        2.66602575435217       -0.10809023701884
H           36.27339134133258        4.54887615457748       -0.18671526818217
H           34.54632118223945        5.13879162014966        1.75192787749899
H           34.51229959001461        7.61602352813370        1.68856108540206
H           33.17157048513165        9.41037433371259       -1.03825603914183
H           32.63912309238171        7.49029513463346       -2.16072025163494
H           32.68063399774682        5.01855733678361       -2.10220495591006
H           30.96118109726617        4.47290248111180       -0.14798708329769
H           29.10897240357776        2.52701390535548       -0.14971906215437
Cu          55.48663613378374        0.00170803003779       -0.01881742691117
C           58.89171206415575        0.03610482806131       -0.10564524482172
C           58.25242858607976        1.26338256460955       -0.19689254665915
C           58.92407704173053        2.52860019304910       -0.27853718949459
C           57.96254093378482        3.48383620292100       -0.32614212345753
C           56.69351177430446        2.80953150299428       -0.28530443019434
N           56.90113500427067        1.46242967608422       -0.20024136291365
C           55.44767455112566        3.44046752923983       -0.30516593763002
C           55.42719838356763        4.91976192397874       -0.42717484151064
C           55.95408121805652        5.54580902766025       -1.55704987419948
C           55.92910760451604        6.92665921808917       -1.67845697009578
C           55.37899294753213        7.70007984874907       -0.65901633121519
O           55.33591002609775        9.05563450091327       -0.73629445196667
C           54.85357246250052        7.08771536090207        0.47712843584378
C           54.87636026633445        5.70842645292303        0.58564688757904
C           54.21720040339879        2.78482795509803       -0.22372919239732
C           52.93807414434846        3.42961234387033       -0.31397651969940
C           51.99505005585974        2.45870361375630       -0.21595030240930
N           54.03254424800152        1.43504325183622       -0.08275169587382
C           52.68862653339220        1.21455936028426       -0.06893645857693
C           52.05752548365820       -0.03568494460748        0.04019589581145
C           52.71822578322503       -1.27129529018918        0.13662299919825
C           52.05563610297330       -2.53618956681707        0.24272707474252
C           53.02269528525266       -3.48559564786437        0.31699668124135
C           54.28550681707978       -2.80531116980932        0.26546239605797
N           54.06721601384834       -1.45837490863681        0.14765625749543
C           55.53224662533817       -3.43356704002127        0.30201008072720
C           55.55189642221080       -4.91007013083060        0.45875833692093
C           55.03975272671240       -5.50712667952963        1.61290634346307
C           55.06317899454719       -6.88177287008435        1.77014234857384
C           55.59681216322171       -7.68317609610997        0.76281105839576
O           55.60271193993247       -9.02904929622729        0.94767367227171
C           56.10639996070661       -7.10229794090165       -0.39606504828701
C           56.08537695925778       -5.72358666608574       -0.54094476244144
C           56.76215843235325       -2.77896526032763        0.20599086004050
C           58.04747203423464       -3.41937412774787        0.27611924618956
C           58.98527506896406       -2.44740496857818        0.15379983798362
C           58.28276942513364       -1.20354099272225        0.01977872659768
N           56.93688735359723       -1.43250971701133        0.05857277615421
H           59.97674820611552        0.04829231132010       -0.11830888492589
H           59.99523030673255        2.65590686002861       -0.28773788758832
H           58.09424165084062        4.55303198562008       -0.37088419974264
H           56.37065714060789        4.94398835163880       -2.35715312754100
H           56.33303438428121        7.40757426553762       -2.56294196668098
H           55.72675693990026        9.37368180786132       -1.56110963366714
H           54.43281899181662        7.70169928318644        1.26381510161015
H           54.47710330087578        5.23273929973194        1.47448035012520
H           52.78425219777017        4.48741582437434       -0.45331039966782
H           50.92305203114457        2.56685344377638       -0.25278180439996
H           50.98626247849516       -2.67301996839515        0.25764008633329
H           52.89522551296238       -4.55363697969728        0.38860630397687
H           54.63504720798711       -4.88283262852989        2.40168435652079
H           54.67365777041434       -7.34664056023059        2.66739399036853
H           55.99608260926019       -9.48575051744068        0.19206112945299
H           56.51622252710647       -7.73080750912774       -1.17950927351083
H           56.47214433995025       -5.27294219940696       -1.44825477067176
H           58.20549653022481       -4.47697209612616        0.41409439770314
H           60.05921620207606       -2.54876159063905        0.16076498699372
C           38.52303995748630        0.03696606250469       -0.03318314359569
C           39.73915938645294        0.04113014974569       -0.03551190544288
C           49.43004216127633       -0.04425002322829        0.04409453497763
C           50.64619871313975       -0.04814642731861        0.04242749844164
Cu          44.58357626744933        0.00788352765740       -0.00858899648961
C           41.14951760429755        0.03759970807103       -0.03542363441235
C           41.80100921611928        1.10574465514615        0.60323211279697
C           41.12870447167276        2.16099262510396        1.29946646800582
C           42.08843586367131        2.98866177546600        1.78561053660792
C           43.35489821953819        2.44704607535315        1.38247166192941
N           43.14730371918394        1.29715314106677        0.66835338025641
C           44.59752303320619        3.00111872499478        1.69739899608612
C           44.60419437658344        4.28342527287469        2.44462738800979
C           45.18530931245689        4.36212361590837        3.71263063894661
C           45.18938246862565        5.55236889440758        4.41799401559601
C           44.61425155569463        6.69053127049240        3.85587468855213
O           44.63819825725759        7.84324372537538        4.57376411982015
C           44.03501188027494        6.62855584611420        2.59060682791647
C           44.02880190754994        5.42936789870185        1.89499629630426
C           45.83482300587320        2.44058159243590        1.37201201178811
C           47.10665462794744        3.04743970491330        1.64308857305546
C           48.05906885882768        2.19903882768746        1.17894845028950
N           46.03189668541854        1.24343301814098        0.73752477299985
C           47.37736588399797        1.07523270705770        0.61120963562107
C           48.01926001252843       -0.03348301831497        0.03445699928511
C           47.36681179821112       -1.12681086044226       -0.55962562288825
C           48.03621994334880       -2.26353566772035       -1.11587175649992
C           47.07643421059864       -3.08331641535364       -1.61538129793336
C           45.81315314882816       -2.44661751618452       -1.37501061995035
N           46.02190414641713       -1.26037078775344       -0.72413064357638
C           44.57180077417564       -2.97240632697414       -1.74002249969458
C           44.56809783788120       -4.24333555906166       -2.50653381995783
C           43.95589534584535       -5.38484059567468       -1.98841921705049
C           43.95205163376821       -6.57261731218006       -2.70326172487026
C           44.55794702749661       -6.62708980519621       -3.95633285864806
O           44.57249753199367       -7.76900287019825       -4.69199417158170
C           45.17009418297990       -5.49323689226824       -4.48700292900583
C           45.17614596801464       -4.31463495422023       -3.76220320794323
C           43.33473406348694       -2.39518884640443       -1.44610795737355
C           42.06598822270138       -2.90733184609977       -1.87868928005976
C           41.11316886630567       -2.06993152794016       -1.39539407533770
C           41.79249091856042       -1.03620281071206       -0.67433494527274
N           43.13583986164463       -1.25013861399728       -0.72136771060967
H           40.05928981386939        2.24330686274803        1.41018800421284
H           41.95437484236017        3.87807681676972        2.37979782995529
H           45.62178150750663        3.47358472756844        4.15500530298444
H           45.63245719702487        5.61440235239684        5.40425377539712
H           44.21163210127969        8.56578539185959        4.09391042147924
H           43.59268895662886        7.51828146729734        2.15534859687895
H           43.58796041730000        5.38504116631237        0.90526022891346
H           47.24962284996853        4.00593244718500        2.11514850082722
H           49.12996761838406        2.31887009557805        1.21202090762052
H           49.10419714276740       -2.41145877312847       -1.11758204748400
H           47.20863022520847       -4.04125538964399       -2.09175927478448
H           43.49388247416685       -5.34626488885014       -1.00817805022255
H           43.48122223918649       -7.45945370542822       -2.29269402133504
H           44.12066522052313       -8.48894032792730       -4.23172347707871
H           45.63369194294122       -5.54906247836922       -5.46417233084200
H           45.64226411750015       -3.42913342980009       -4.17978842864117
H           41.92546332702464       -3.78512251007265       -2.48847126798556
H           40.04478071772918       -2.13131578052302       -1.52672556262264
