78
 energy: -140.482226874660 gnorm: 0.000889885737 xtb: 6.5.1 (b24c23e)
Fe           6.51661644304858       -0.05177392860716        0.00839293882738
C            3.10510013348305       -0.06155268244570       -0.01759331924868
C            3.76179466737375       -0.89978422218759       -0.89521420639516
C            3.09276813598695       -1.78257068337025       -1.80566209131568
C            4.05824647387927       -2.44586741083787       -2.48414168736336
C            5.31435035935690       -1.96994625140261       -1.98313006441663
N            5.12055587865005       -1.01513879346846       -1.02209910769260
C            6.53880529352973       -2.44388296370124       -2.41026953674550
C            7.75266730955096       -2.01345693948693       -1.91913675625624
C            9.01361535356171       -2.53868825756944       -2.34873743309301
C            9.96755547579701       -1.87422905638698       -1.65352627741479
N            7.93565859625967       -1.03427762869301       -0.97295529725291
C            9.28559137867544       -0.94165267510820       -0.80829811035318
C            9.94849523874650       -0.03548376373115        0.02755582378425
C            9.26890821368370        0.88483664216375        0.83390624225009
C            9.93345224505186        1.82482619326875        1.68468744131834
C            8.96478469626796        2.52341363069123        2.32375418170091
C            7.71271942493042        2.00336929310205        1.86325160348329
N            7.91541896071904        1.00742930790894        0.93832426175608
C            6.48905194616881        2.44287262629803        2.32057641769691
C            5.27423001363859        1.93923655770397        1.89985259806978
C            4.00899675475612        2.39033799560114        2.40077045273939
C            3.05776816946732        1.68184699198323        1.74828594897700
C            3.74448559514863        0.80240115801056        0.84786716504884
N            5.09995595873727        0.96798295264970        0.95187426246975
H            2.02112077108754       -0.07864903672014       -0.01171612775062
H            2.02136982413589       -1.86793884724018       -1.89599728591548
H            3.95265842639288       -3.19527092716641       -3.25263584857965
H            6.54584830832909       -3.21371006742989       -3.17375357743308
H            9.13237855018023       -3.31701563765618       -3.08568077269572
H           11.03878173956457       -1.98800922652891       -1.69913779968207
H           11.00390884314538        1.92166910545204        1.77009985919315
H            9.06830285992450        3.31600002729304        3.04764374171999
H            6.48034173038261        3.23037940005755        3.06579055495187
H            3.88796120915059        3.15151399516515        3.15529354605960
H            1.98526140251865        1.73499947046626        1.84960672535182
Fe          22.54944001486894        0.02959586366351        0.04455918790764
C           25.96066374516556        0.05707785032253        0.02236483136415
C           25.30289817812775        1.26718486899916       -0.06165728873408
C           25.97069046860259        2.53329832098649       -0.14434421928007
C           25.00431453916574        3.47959637203250       -0.19959044664582
C           23.74889588774353        2.78944533525646       -0.14526870883143
N           23.94396121772338        1.43677817326827       -0.07499989615978
C           22.52387655819411        3.42632912560079       -0.13925145845524
C           21.31094481983931        2.77653011457041       -0.05889207523356
C           20.04976568644551        3.45328155773220       -0.01751212107020
C           19.09687689269160        2.49341407736367        0.05620070566192
N           21.12918977573911        1.41538803367783       -0.01475025809668
C           19.77964914851447        1.23525782569847        0.05210945587154
C           19.11783113940369        0.00195777900179        0.06391899127853
C           19.79827135834785       -1.22090859335167        0.03844784150640
C           19.13444833188667       -2.48912692827128        0.03789832136510
C           20.10363651942297       -3.43536312861224        0.03409731666646
C           21.35534132429049       -2.74000523333469        0.03686003940848
N           21.15174342363866       -1.38107483838650        0.02567475847302
C           22.57972508864793       -3.37194560119786        0.07206645444055
C           23.79404605942401       -2.71519574020144        0.09595949063333
C           25.06006742500129       -3.38492113465834        0.15811267922779
C           26.01039622322155       -2.42089015389344        0.15198434263349
C           25.32235547619880       -1.16493689638448        0.08171255557408
N           23.96698326317206       -1.35856413034958        0.05032804859836
H           27.04466756210811        0.06653854841157        0.03570314059689
H           27.04196315296697        2.65815751561088       -0.15603740623736
H           25.10886523097633        4.55105536396928       -0.26569403407376
H           22.51563853635341        4.50944458242570       -0.18808086692203
H           19.93008402041973        4.52481964898869       -0.03971951001571
H           18.02590099455956        2.60780934375798        0.10508132297964
H           18.06403650159250       -2.61870901164330        0.04227976604299
H           20.00079887574015       -4.50883298886034        0.03597931239124
H           22.58948335730071       -4.45595810078417        0.09138500230819
H           25.18220412236396       -4.45567777768562        0.20167862649905
H           27.08308954981040       -2.52745426882700        0.18844327059139
C           15.14768898485133       -0.02148877265101        0.09865890542273
C           13.91839354620872       -0.03237659411307        0.08776535441918
C           12.57551234462191       -0.03252807776572        0.07446454379637
C           11.35092458371224       -0.04330691960820        0.04963430677963
C           16.49060391713413       -0.01516721474159        0.09716740877754
C           17.71545077253724       -0.00872354408952        0.08733384275481
