292
 energy: -518.539676128781 gnorm: 0.000327105296 xtb: 6.5.1 (b24c23e)
Cu          50.56701951918609        0.12981193967410       -0.06176288173211
C           47.15881985499860        0.19974169445241       -0.11077091166046
C           47.78620614986666        0.97740708158662        0.85145886867847
C           47.10347946026044        1.77640113813480        1.82953139449282
C           48.05692274595352        2.36969802799317        2.58971276432999
C           49.33122079333374        1.94471638949583        2.07824275312983
N           49.13504742675480        1.09952194521439        1.02413118701570
C           50.57031793820791        2.32433320702647        2.59536158767405
C           51.80695775863462        1.88723274569643        2.12059200794340
C           53.07883241886808        2.31937402153175        2.62609636251406
C           54.03305415515467        1.69077972475279        1.89422001653121
N           52.00700949608632        1.00758028042997        1.09009433682611
C           53.35246546684402        0.87230525787995        0.93494278562507
C           53.99641906721861        0.07387956359788       -0.02505985230823
C           53.34765089484073       -0.70557085800825       -0.99745958791869
C           54.02143995804857       -1.54785279326153       -1.94087876836237
C           53.06290336124221       -2.15167922372264       -2.68779473095739
C           51.79537924639808       -1.67947737795729       -2.20808195910297
C           50.55562161478413       -2.08081969642063       -2.70477922243751
C           50.55213237145750       -3.04957654878367       -3.83838692737624
C           50.97413193929850       -2.65262539063734       -5.11390745126409
O           51.35904673350991       -1.35427437968066       -5.23451359608150
C           51.82131592949633       -0.85698404291190       -6.47357386886232
C           50.97354138584931       -3.56119936063541       -6.17196479110905
C           50.55490939626766       -4.86426306163246       -5.94899508406974
C           50.13415208771463       -5.28053540980282       -4.69494967645882
C           50.13075922478470       -4.37063555131769       -3.63810468326336
O           49.74469543758214       -4.68535022644189       -2.37289826366701
C           49.30427835336334       -5.99157953852050       -2.06303414435535
C           49.31909314082962       -1.65011686356567       -2.22360115516114
C           48.04389242453717       -2.02915405416647       -2.76762296015927
C           47.09418630741781       -1.38705055859596       -2.04312210859850
C           47.78068496144142       -0.60759252308109       -1.05194149947968
N           49.12769217738062       -0.78669559266821       -1.18361121034715
N           52.00208046912675       -0.80035260136875       -1.17839917846696
C           50.57387285404629        3.27429992426957        3.74443921261644
C           50.97694669711824        2.84710872295756        5.01669673992111
O           51.33857441452256        1.54040145668857        5.11780414580569
C           51.79486989509754        1.01696197692012        6.34829554390236
C           50.98085347748842        3.73549739897047        6.09167186271677
C           50.58550808525349        5.04917900134208        5.88974716848591
C           50.18455027839066        5.49566757492797        4.63967962547685
C           50.17690570879942        4.60613096851367        3.56566417953363
O           49.80925531363621        4.95247948637178        2.30314192875353
C           49.39174583472413        6.27132203963563        2.01580492705775
H           46.07381988388232        0.22305612059412       -0.12696443719025
H           46.03103500294587        1.85810645335839        1.91551447815965
H           47.91901385695645        3.03600949713733        3.42621059791143
H           53.21760832562639        3.01999156604458        3.43371173534147
H           55.10452438314570        1.77484174189892        1.98281749198158
H           55.09133794670088       -1.66392501638559       -2.00936953676825
H           53.19566993231794       -2.85901924682014       -3.49056821093055
H           51.04516455538079       -0.91746247230369       -7.24630606516411
H           52.07706051656810        0.19065071386430       -6.30421782862487
H           52.71441271162199       -1.39486114787623       -6.81441223365638
H           51.29434060920340       -3.26360193704698       -7.16134211968000
H           50.55663285309813       -5.57149123552182       -6.77122135338800
H           49.81480734563818       -6.30387206177362       -4.54948197089390
H           49.05445527579431       -5.98398918211328       -1.00038608328483
H           48.41189982150037       -6.26262273239935       -2.64039973946824
H           50.09104866235835       -6.73453535869183       -2.24227168114358
H           47.90370910407562       -2.69894648261233       -3.60106202553458
H           46.02227975935836       -1.42437004028513       -2.16076218047612
H           52.03997875382970       -0.03014144937033        6.16088643501395
H           51.01906797798582        1.07193207584503        7.12178534626992
H           52.69328106488084        1.53968528468531        6.69862658376705
H           51.28645851622246        3.41381510608763        7.07831528993911
H           50.58987676344017        5.74053145376506        6.72534258997017
H           49.88325132846975        6.52662695865770        4.51056914599740
H           50.18883164715055        6.99798431973782        2.21513379862165
H           49.14958577680410        6.28840095816033        0.95149873382295
H           48.49952588454168        6.54527643177362        2.59205235145627
Cu          83.29946189079158        0.00400938795666       -0.10961462937816
C           86.70774536887818        0.07125607469567       -0.17381257282022
C           86.07777488744465       -0.65639024309961       -1.17272205869055
C           86.75761728499359       -1.39121671350402       -2.20178963942256
C           85.80197676161400       -1.96450345440798       -2.97442418857777
C           84.52916327697470       -1.57814114393988       -2.42971477996505
N           84.72846237732485       -0.78833465109386       -1.33392219960309
C           83.28839846872488       -1.96479384970303       -2.93692586423853
C           82.05293476209349       -1.60797628630682       -2.39641426762816
C           80.78011231991437       -1.97702828781784       -2.94717660680142
C           79.82761599102939       -1.43750969683859       -2.14544039034390
N           81.85516408127451       -0.84489254066935       -1.27652745947704
C           80.50972095794923       -0.73032586130212       -1.10250019956305
C           79.86844087560324       -0.04835068186574       -0.05500556543686
C           80.52114957418135        0.64910282897717        0.97511538529370
C           79.85140486131360        1.33444013598778        2.04047014089800
C           80.81226328955128        1.89910709055398        2.81447337143314
C           82.07740381258427        1.56848042610649        2.22321054830498
C           83.31781176500192        1.96388469699393        2.72318394017576
C           83.32313736998782        2.82103188538365        3.94352964471456
C           82.88815064259055        4.15113262864696        3.87594326575861
O           82.48845872101262        4.58334652365153        2.65048619109994
C           82.00638663692608        5.90028462811577        2.47809535685483
C           82.89192900989075        4.95367402082741        5.01644485640442
C           83.32672976980085        4.42135729835040        6.22080093919275
C           83.76061727028248        3.10745317668917        6.31226429916607
C           83.76110655551815        2.30653354451645        5.17057598147415
O           84.16092334026477        1.00676151365751        5.16078332776922
C           84.61917689625233        0.39073834953392        6.34678534869233
C           84.55263767088906        1.62581028427158        2.16968517745792
C           85.82853756568680        2.06016094710371        2.66891223809214
C           86.77634598627692        1.53014664962782        1.85664378866952
C           86.08792525074342        0.77210807269406        0.85030608010235
N           84.74154806994078        0.84903851890797        1.06287858602235
N           81.86735907514252        0.80201759144353        1.10790165504780
C           83.28110600878166       -2.83082085226433       -4.15067753061812
C           82.87064836515044       -4.16782918503557       -4.06282901513303
O           82.50545807731079       -4.59707805521666       -2.82557423866021
C           82.04079459637232       -5.91766207313812       -2.63424416688807
C           82.86394140195422       -4.98048558369462       -5.19607331849490
C           83.26402507840962       -4.45214347545540       -6.41408172454956
C           83.67280732864141       -3.13185214916209       -6.52605967245782
C           83.68330079601452       -2.32045055376857       -5.39186131377003
O           84.05932670939987       -1.01352806980495       -5.40373474087045
C           84.48953094245046       -0.40426839905767       -6.60366777897989
H           87.79267101358961        0.09327602304628       -0.19486378829482
H           87.82980981303892       -1.45548645360864       -2.30417774143394
H           85.93745188835875       -2.59466712348491       -3.83885647044173
H           80.63959123004020       -2.57179909296580       -3.83533212235034
H           78.75613061233715       -1.50929963985411       -2.24275760981156
H           78.78183145443568        1.37486777560645        2.17111756181750
H           80.68251051703989        2.48839723487346        3.70794313436536
H           82.77522454839279        6.64497008182448        2.71794363480461
H           81.73776216467171        5.98994797163590        1.42383871903048
H           81.11747052325320        6.08637782633275        3.09307311271483
H           82.56155009397762        5.98292907878786        4.97384824949191
H           83.32769778238048        5.04470925967205        7.10829178493759
H           84.09261582841461        2.71825443408875        7.26549279295363
H           84.88230209696927       -0.63336995665443        6.07537859101230
H           85.50705421667141        0.89645534171328        6.74565324428933
H           83.83808090552235        0.36953001528073        7.11660729164421
H           85.97065707650309        2.69151250930625        3.53148745661011
H           87.84817264147296        1.63789648593643        1.91819680140966
H           81.79257980385944       -6.00189159798159       -1.57455374237185
H           82.81290932950098       -6.65613469054128       -2.88259061706060
H           81.14271172226290       -6.11781218984451       -3.23122891316961
H           82.55265579426568       -6.01487095065224       -5.13722097409695
H           83.25739113191401       -5.08356356410076       -7.29581362011616
H           83.97789132387156       -2.74574443610491       -7.48947167427221
H           83.69724488581853       -0.40569453575293       -7.36223229955104
H           84.73895384885937        0.62739989657200       -6.34845021863770
H           85.38011663793819       -0.89975483361348       -7.00931962301271
C           55.40697793309531        0.05116089728403       -0.01073811400977
C           56.62288129793786        0.02913007177667        0.00069728116999
C           66.32227930338210       -0.07085588275693        0.04513964952317
C           67.53962920771019       -0.07031200177882        0.04039721378269
C           77.24084928342042       -0.06735994932141       -0.02659403254697
C           78.45697013983421       -0.06175861203968       -0.03826054226310
Cu          61.47046585607504       -0.03689395334671        0.02787467192691
C           58.03298354807926        0.00701630832683        0.00967814981819
C           58.67693122166067        0.17740276313019        1.24684031034966
C           57.99756436922630        0.30173275180171        2.50195596911721
C           58.95255795461674        0.44011321012879        3.45640385522170
C           60.22206901245944        0.40866183132517        2.78887826240737
N           60.02177120880214        0.24133876830322        1.44460148606089
C           61.46014938406469        0.53149345954784        3.41922090384836
C           62.70063433330310        0.45810327284820        2.78521906513140
C           63.96313839177687        0.67490376963399        3.43030683911708
C           64.92450544977622        0.51618267716252        2.48547243027788
N           62.91174108103062        0.17898159634311        1.46118272901503
C           64.25755296312366        0.19873092513647        1.25862576434495
C           64.91294005560925       -0.06499944294875        0.04254725096162
C           64.26409876622562       -0.32258348285827       -1.17857697259097
C           64.93652479318949       -0.65210269551621       -2.39925332135038
C           63.98112105849761       -0.79733067358724       -3.35220931424192
C           62.71682914757866       -0.56131761554388       -2.71776351716171
C           61.48093286713668       -0.61826554782348       -3.36132848858279
C           61.48953471921955       -0.85515826259720       -4.83305581876286
C           61.01792879980219       -2.06369084858683       -5.36208357692493
O           60.57790865345324       -2.97654755479435       -4.45592759785101
C           60.06522460091233       -4.22151191581142       -4.88396254123869
C           61.02943941900492       -2.28330994260645       -6.73923001601436
C           61.50885131808520       -1.29175888572465       -7.58188932533067
C           61.97897072984338       -0.08690449163168       -7.08162005103050
C           61.97136177791410        0.13110102611458       -5.70422081454811
O           62.40137550076205        1.28057939171265       -5.12010326827106
C           62.92435342443338        2.33214471573410       -5.90563796300364
C           60.24004686086819       -0.46901190363871       -2.74307576613367
C           58.97718095695424       -0.47943284057045       -3.42343590228914
C           58.01623804817815       -0.30667851273200       -2.48065916897424
C           58.68543904267280       -0.18647925791445       -1.21963944089700
N           60.03027245731560       -0.28494605518558       -1.40249097314571
N           62.92075499798671       -0.28338373741891       -1.39237374858946
C           61.46004404478986        0.75713208390519        4.89253842992453
C           61.93977564177055       -0.23534330303227        5.75829511588625
O           62.37767682317546       -1.37819207001469        5.16705036873431
C           62.90972559703491       -2.43052787118842        5.94538120265431
C           61.93732030990031       -0.03047198670701        7.13765915663931
C           61.45989383115020        1.16798809164682        7.64624759709515
C           60.98353923254027        2.16594568638830        6.80953518482691
C           60.98167558563554        1.95938403269001        5.43030777951436
O           60.54543940133884        2.88073474117420        4.53088924837916
C           60.01640819481794        4.11537370403226        4.96891897365141
H           56.92699382226648        0.27381388932569        2.62881342385873
H           58.81517021144330        0.54918916228010        4.52014289972366
H           64.09128734204153        0.92681613812454        4.47076143161218
H           65.99189506817088        0.61465705176498        2.59927902071456
H           66.00287046779704       -0.76881534256837       -2.50390092801911
H           64.11436017964250       -1.05115564648763       -4.39155541596433
H           59.18590261320424       -4.09428385991117       -5.52716017688961
H           59.77238569176233       -4.75675501465686       -3.97875096483927
H           60.82348111902417       -4.80668563375009       -5.41856150599935
H           60.67119353592248       -3.21459452000596       -7.15723365678426
H           61.51634781345906       -1.46188646626543       -8.65298650391331
H           62.34510245467425        0.66973198773049       -7.76265995051444
H           63.20605991380626        3.12204637850619       -5.20681039305782
H           62.17581204104913        2.72185016548029       -6.60634166314065
H           63.81233721078983        2.01278741204167       -6.46469235265976
H           58.84866761762728       -0.59848401056926       -4.48724994438558
H           56.94811952365298       -0.25419717677999       -2.61925403816838
H           62.16165890777353       -2.83819510735912        6.63627276390556
H           63.20778378228660       -3.20880606552736        5.24032486647186
H           63.78898010126375       -2.10469935771407        6.51438368942062
H           62.30086125505129       -0.79265915613870        7.81388215006302
H           61.45918111349598        1.32790375788516        8.71893640477242
H           60.62010864924491        3.09238078869796        7.23378843705312
H           60.76624946927384        4.70511001363038        5.51035829796220
H           59.13742052833145        3.97154495249242        5.60904739814305
H           59.71871260054519        4.65501275743782        4.06791042984436
Cu          72.39065434421724       -0.06861987732826        0.00794401261268
C           68.94894753358761       -0.06974412096457        0.03176159724562
C           69.60968788457701       -0.19633214238821        1.26676794894221
C           68.94953212751741       -0.38421043960869        2.52360575576544
C           69.91480700073842       -0.42369966357078        3.47694781884848
C           71.17285309324332       -0.26072443184500        2.80769246013289
N           70.95548959333698       -0.13838879790313        1.46104054433358
C           72.41506024340391       -0.23254391410245        3.44141048749982
C           73.64907684893691       -0.14600251051724        2.79709874322034
C           74.91923644134820       -0.07727202053463        3.46034946150778
C           75.87086111527634       -0.03293860063250        2.49373354281705
N           73.84533211117513       -0.12647128360932        1.44210200310906
C           75.18916440638498       -0.06475535276741        1.23418432687728
C           75.82979018117213       -0.07013151843321       -0.01630681695559
C           75.17246229329685       -0.07289155227325       -1.25817274952976
C           75.83653837700545       -0.09607989934887       -2.52738614577895
C           74.87151331285027       -0.04300572155142       -3.48026763209057
C           73.61094257300286        0.02003947654536       -2.79856634999136
C           72.36810154148951        0.10986736775593       -3.42464684780460
C           72.35548552062326        0.19661858140205       -4.91293159001751
C           71.86764664570919       -0.86916058258256       -5.68065941737291
O           71.43549730558328       -1.95355332818773       -4.98410592554222
C           70.90401699297033       -3.07443444702611       -5.66039483468906
C           71.85563794057799       -0.78840962481695       -7.07284704646030
C           72.32698766267302        0.35973288347581       -7.69138898729552
C           72.81188461463908        1.42832010532472       -6.95249817667133
C           72.82797274037419        1.34582197483282       -5.56045469379730
O           73.27298826780869        2.34289382073566       -4.75068819911731
C           73.79000907000614        3.53670571430731       -5.30180194036896
C           71.13489484247229        0.13044982886831       -2.77396681510955
C           69.86778801443218        0.29276367319425       -3.42577122643399
C           68.91579097939521        0.24919246102299       -2.45941455143657
C           69.59303400614287        0.05864125087675       -1.21208462607721
N           70.93606570727624        0.00280099421949       -1.42481804994774
N           73.82597965902092       -0.00989527270080       -1.44675411998268
C           72.42277353863246       -0.30338344188932        4.93034015545823
C           72.92658398634043       -1.43480247350453        5.58585714225543
O           73.38072341825449       -2.43352903286032        4.78311936980491
C           73.93220571429715       -3.60787828248886        5.34258289540870
C           72.93026459863611       -1.50034534269624        6.97887174972754
C           72.43354997229854       -0.43280936217727        7.71135269304409
C           71.93085398832130        0.69771142122406        7.08517338209937
C           71.92339123133819        0.76165777129612        5.69212658380010
O           71.46172188025271        1.82969512192091        4.98922906714975
C           70.89496128835675        2.93746789906793        5.65847261000258
H           67.88380886069858       -0.48365465399156        2.65145192070022
H           69.79173589189121       -0.55815107030173        4.53957141655917
H           75.05930388272307       -0.06463987289907        4.52922327808421
H           76.94124792562759        0.01620122410104        2.61438784385491
H           76.90509002750815       -0.14481485449588       -2.66348700327851
H           74.99604110806547       -0.04629224363081       -4.55119330564570
H           70.01778307155016       -2.80612812885543       -6.24833325941250
H           70.61729094378830       -3.78850165076957       -4.88609123253821
H           71.64901872050049       -3.53761869511255       -6.31891100784555
H           71.48501141124791       -1.60750094768211       -7.67457542559443
H           72.31590278418817        0.42329353960784       -8.77401302722509
H           73.17063177199672        2.31285247519380       -7.46166473688373
H           74.08832556273669        4.15777718627664       -4.45508887534605
H           73.03268116619282        4.06966095538683       -5.88966104837418
H           74.66652464618423        3.34183901465529       -5.93167743221420
H           69.73024462516329        0.42954609548313       -4.48632467520593
H           67.84860368797443        0.34895492171593       -2.57265040321816
H           73.19447150908593       -4.15120651057888        5.94567019416230
H           74.23558331166103       -4.23215863887797        4.50003291531699
H           74.81099106299165       -3.38461070121053        5.95975236739849
H           73.31350271799272       -2.37114056121225        7.49382100175402
H           72.43815418504143       -0.48311237703886        8.79471086249437
H           71.55197414533247        1.51682951617859        7.68169993336547
H           71.62611073752822        3.43211431292255        6.30955337723413
H           70.02120654822620        2.64339890808450        6.25272759720404
H           70.58018934042344        3.63438030271058        4.87944262412130
