207
 energy: -420.066094070927 gnorm: 0.000793403981 xtb: 6.5.1 (b24c23e)
Fe          28.92947181149436        0.05100113481356        0.01499988603346
C           25.54653934395702        0.18037538136323        0.06840341102652
C           26.19489173684651       -0.29495426839515        1.19017510830900
C           25.52220664132305       -0.78600131867754        2.35498279741005
C           26.47931983494709       -1.04021056465715        3.27832467062413
C           27.73558272249979       -0.68884754493190        2.68086160834546
N           27.55053568988227       -0.27781591464902        1.38858927256063
C           28.95190746194389       -0.69135005353672        3.35474589390645
C           28.96535033048366       -1.04211806652904        4.79394600337664
C           28.26057614653443       -0.26612406984888        5.71743802816522
C           28.27480869854054       -0.59078828351307        7.06398234713499
C           28.99473463156172       -1.70169383496710        7.47270005755397
S           29.02391242896114       -2.11500987017976        9.17635842154704
O           28.74237431620608       -0.96738458961290        9.98796848978042
O           27.71898805287913       -3.08171820629820        9.20612594192605
O           30.17946096545831       -2.90432950885576        9.48514566917118
C           29.70419251631595       -2.48968462147912        6.58100795752705
C           29.68787100512816       -2.15254663360891        5.23774160738029
C           30.15592114458806       -0.37813920869218        2.73797363963801
C           31.41361299351110       -0.30034880259885        3.42017565081149
C           32.35928567173148       -0.08926593979897        2.47307746658939
N           30.32987167481246       -0.15854385106191        1.39299885472690
C           31.67715319847074       -0.03297871034829        1.21817438189306
C           32.33542075373229        0.02287809997625       -0.01573960608828
C           31.65200509807012        0.09019601789666       -1.23576296585602
C           32.30579268780135        0.09567874082765       -2.50669272269363
C           31.34570906982501        0.31930355910476       -3.43654953504092
C           30.10870889982427        0.46052804116579       -2.72737055341849
N           30.30803739155820        0.27156643204035       -1.38124960364274
C           28.90349256327970        0.81250578302417       -3.32020208382733
C           28.89069704477020        1.12049700106730       -4.76905726011869
C           28.11625126403751        0.35597657704659       -5.64517279508860
C           28.10422212349805        0.63778787151457       -7.00128320236680
C           28.87059064697495        1.69339676592088       -7.46785543288736
S           28.85135205100802        2.06191121823348       -9.18193578058034
O           29.20733604827198        3.43050465703601       -9.41783327749671
O           30.10618843938796        1.13581448573925       -9.63628044109242
O           27.66240844798040        1.54850022565708       -9.79489384654194
C           29.64261410013437        2.47417777650007       -6.62295382817002
C           29.65157441852532        2.18010014985176       -5.26949149088525
C           27.70827869499648        0.88720865649194       -2.61310650620254
C           26.45721926039545        1.29834126130391       -3.18302166492819
C           25.51475612479079        1.12055352986488       -2.22762252883384
C           26.19113260679769        0.61090496599586       -1.07279216497553
N           27.53926358279970        0.52148678926973       -1.30516322254550
H           24.46306762012548        0.21190935588654        0.08255800977694
H           24.45458982336309       -0.91367103673952        2.43664491858726
H           26.35839939925088       -1.43148712224705        4.27544422689145
H           27.71370369266333        0.60577594473440        5.37807482004369
H           27.74218340388528        0.01021307666639        7.79027991319403
H           27.51838337534673       -3.34442669705568       10.11269128962333
H           30.26065632763454       -3.34788986970481        6.93616873045645
H           30.22817354109020       -2.76064443514599        4.52165635517486
H           31.54553048008500       -0.39247210600666        4.48588051609216
H           33.42513202661915        0.01442301133092        2.59694662293173
H           33.36365408003043       -0.05191919931740       -2.65281696698058
H           31.45497283213690        0.37947024889250       -4.50711569062281
H           27.53237934110746       -0.47210959614334       -5.26069351171309
H           27.50813147843303        0.05189590735759       -7.68956407858317
H           30.33226242875084        1.31098781575314      -10.55789329512876
H           30.21960417997102        3.29981245093582       -7.02021025443899
H           30.23948324261679        2.78521016799709       -4.58928106276685
H           26.33009625186786        1.67546906127953       -4.18477027899551
H           24.45413675495104        1.30713432496333       -2.28244272694993
Fe          66.02918102374882        0.01846781672852       -0.01120326731291
C           69.41398163724180        0.18049061199475       -0.01616122741820
C           68.76370697949083        0.16047528643665       -1.23302550386228
C           69.43627863128404        0.14256952594130       -2.49696027152442
C           68.47817472196013        0.24243335398976       -3.44820999729332
C           67.22130683600601        0.33534893045098       -2.76257150522209
N           67.40750286318536        0.24543583775150       -1.40934687505674
C           66.00228260735712        0.55847849410379       -3.39185061153547
C           65.98922407749190        0.75822772838385       -4.85999584381506
C           66.66712434869578        1.83865012572049       -5.42990047940645
C           66.65436695389553        2.03162026961917       -6.80149231922849
C           65.96340214600370        1.12900750616279       -7.59352438700960
S           65.93684182584423        1.37088495922836       -9.32984811646676
O           66.17509505290505        2.74543491467490       -9.65946265483123
O           67.27226991405372        0.52564372522828       -9.70484937421513
O           64.80650563537299        0.71303019002400       -9.91582285879255
C           65.28146129586949        0.04870312067687       -7.05759003096170
C           65.29576599561977       -0.13130854883175       -5.68428997726286
C           64.79596008265700        0.60329337462165       -2.70573278952752
C           63.53385165664394        0.89039284361390       -3.32020959473380
C           62.58904882291343        0.73653629725470       -2.36172358745963
N           64.62549189618593        0.33346991580117       -1.36930651832686
C           63.27608869558788        0.36433601615694       -1.16474835595599
C           62.62060842897887       -0.00275047627308        0.01471265889901
C           63.30382721990214       -0.35154256364513        1.18444805365672
C           62.64943968311387       -0.78279880499119        2.37956612053845
C           63.61139781938050       -0.90892603862699        3.32542718490670
C           64.85022994677932       -0.54306450885597        2.70581576522425
N           64.64970334938192       -0.24004081216835        1.38099600697199
C           66.06050327738367       -0.44822130112391        3.37978379171834
C           66.07678611491323       -0.68675641315184        4.84202576686343
C           66.82571306272575       -1.73859493119589        5.37528821118894
C           66.84190560846920       -1.96793468737768        6.74122197776163
C           66.10557313584950       -1.13169767299953        7.56451503620621
S           66.13150626950804       -1.40941854931497        9.29555623093907
O           65.81465913970752       -0.20969191692927       10.01365886132718
O           64.84954670562838       -2.40202078631021        9.39451673775323
O           67.30384343493384       -2.14251279314324        9.67122996588247
C           65.35911038054701       -0.07634695606386        7.06600608976328
C           65.34546759000553        0.14042126833766        5.69801890938245
C           67.25756208054590       -0.14261593404138        2.74287377546967
C           68.51349145071288        0.01105726885677        3.41964293679917
C           69.45412798958743        0.18940320863858        2.46290642420698
C           68.77199627186165        0.15377601168590        1.20426202076836
N           67.42229760496696        0.00142316286785        1.39135752648768
H           70.49750774587973        0.21288400649494       -0.01937323540149
H           70.50445539624656        0.06165771353031       -2.62034547036577
H           68.59830045669906        0.25022044669413       -4.51941365097155
H           67.19194230830755        2.53908549663748       -4.79083570413174
H           67.16605604029748        2.87210524048511       -7.25331363588932
H           67.46143756270847        0.60092262803290      -10.64806637241048
H           64.74730347783702       -0.63413850058955       -7.70621873977179
H           64.77660864181495       -0.97492209529469       -5.24467224160935
H           63.39851526392059        1.17441588513947       -4.35101042743857
H           61.52077361392106        0.85560746621425       -2.44359719168114
H           61.59009266413138       -0.96207080811150        2.46803011522437
H           63.50257666041829       -1.22638088273100        4.34964253399234
H           67.38659814965068       -2.38686367377339        4.71224960562772
H           67.41852103611642       -2.78010482042182        7.16574676754966
H           64.62584745340193       -2.56544632071556       10.31886691030607
H           64.80537331935157        0.56518784282771        7.73995154533183
H           64.77713126189758        0.96692819478405        5.28773081201805
H           68.64459166177666       -0.01343330329935        4.48925297168837
H           70.51712613709670        0.32874156025890        2.57840328432355
C           33.73685359996737        0.00550859233275       -0.03117525762416
C           34.96253791946761       -0.01248059750392       -0.03663073899104
C           36.30287620664447       -0.01876389254886       -0.04439730126932
C           37.53510916935512       -0.02413491606294       -0.04829165637098
C           38.87045989472676       -0.02744206489267       -0.05057115746471
C           40.10284702995876       -0.02900885305805       -0.05049282931374
C           41.44284107697518       -0.02868287567196       -0.05070021529151
C           42.66914316921324       -0.02740948859620       -0.04963224219233
C           52.28404380840664       -0.06619916809091        0.01341091131696
C           53.50939260897717       -0.06919634858274        0.02157182217586
C           54.85084599775675       -0.06999384853922        0.03003860804478
C           56.08229367288283       -0.07068433356029        0.03065181365938
C           57.41924411977811       -0.06348274718207        0.03308385864453
C           58.65049652014039       -0.05646195556805        0.03491455817159
C           59.99242550477932       -0.04281845115012        0.03113991149533
C           61.21724656998241       -0.02791516770973        0.02276361813567
Fe          47.47563790694203       -0.06037880822116        0.00676256589182
C           44.06944926775063       -0.02763519295638       -0.04779062076102
C           44.74238132847023        0.89950618876453        0.75878470379188
C           44.08131118581012        1.83259823210539        1.61581943381528
C           45.03621756213958        2.67332173209466        2.08428193406095
C           46.27632175037237        2.25299474703555        1.50373470978961
N           46.08524919542359        1.13396430682758        0.73165078057316
C           47.47759028691265        2.93968682443362        1.63175114096930
C           47.47891381435787        4.23034068245194        2.35806570466413
C           48.25770729770259        4.39134139321275        3.50668222830803
C           48.25949342090306        5.59548230477407        4.19126767870224
C           47.47917517347014        6.63445436125245        3.71095811769301
S           47.48669428872269        8.16571496215655        4.56582745681541
O           47.12776377502929        9.24429625907465        3.69221166499633
O           46.22829155712044        7.89046083029027        5.55470049331893
O           48.67262380003694        8.29157648580910        5.35926276792919
C           46.70202473592801        6.50722851770231        2.57108107714701
C           46.70244346528924        5.29679115687351        1.89781266004571
C           48.67838685530065        2.46694822771819        1.11534317569167
C           49.92306281226013        3.17231958482836        1.18801462079004
C           50.87816118357983        2.32565739125400        0.73172607148241
N           48.86516373238973        1.22831193664190        0.55302211840938
C           50.21242743134215        1.11356040696305        0.37117797196411
C           50.88218937315047       -0.05787316524739       -0.00179756581742
C           50.20589127162771       -1.22089115702352       -0.38997027994645
C           50.86179595173517       -2.44325269032587       -0.73269262625091
C           49.90600317352456       -3.27442052585640       -1.21607845393265
C           48.67089933345279       -2.55027362160240       -1.17494715073150
N           48.86426731733857       -1.31026208338786       -0.61939699889738
C           47.47318031530747       -3.00691452245284       -1.71349789123368
C           47.47365193785126       -4.29589291619476       -2.44246055742461
C           48.27617555324384       -4.46199071473257       -3.57401055499178
C           48.28063497846111       -5.66392480157480       -4.26230565702034
C           47.47863418747951       -6.69588365730766       -3.80303640524164
S           47.48923818351636       -8.22456247313053       -4.66222461803482
O           47.10446925126435       -9.30201220535899       -3.79838305351325
O           46.25334076051514       -7.93388899047879       -5.67485037803398
O           48.68862496761451       -8.35988098601313       -5.43382426891829
C           46.67808130233636       -6.56392901838443       -2.68000608754042
C           46.67661195827225       -5.35578635275022       -2.00259561044975
C           46.27705540386477       -2.30957075310808       -1.59716701551759
C           45.03758088664078       -2.72487678655748       -2.18307343535367
C           44.08309665285439       -1.88534504585340       -1.71226022065034
C           44.74423781540917       -0.95517187548321       -0.85203270229451
N           46.08844594586530       -1.18356098748591       -0.83348350113778
H           43.02270561905412        1.83551056505011        1.81951987615810
H           44.92100056165158        3.50145132372402        2.76443421574498
H           48.85283553150581        3.56214278148592        3.87096104829958
H           48.85889068778812        5.73169286130818        5.08261019301612
H           45.96298218728604        8.70825142792812        5.99295148256040
H           46.11375950977306        7.34442361267281        2.21688700518177
H           46.11055917406717        5.17903161396728        0.99766899585718
H           50.04168851070209        4.18301826990640        1.54289750861778
H           51.93995616745853        2.49110864511450        0.64630877245078
H           51.91777362623821       -2.62646234758630       -0.61662935458670
H           50.01782746118690       -4.28779819737177       -1.56555838960735
H           48.88814785977215       -3.63809691141402       -3.92199242089593
H           48.89845263459560       -5.80377483256158       -5.14038668613587
H           46.01102934378035       -8.74022808592169       -6.14632663824211
H           46.07350334982068       -7.39600458177480       -2.34157698444493
H           46.06716619248338       -5.23537858596136       -1.11459899614775
H           44.92156110950783       -3.55204346464070       -2.86419589050056
H           43.02441352338845       -1.88731188716341       -1.91555883413289
