248
 energy: -415.085789120734 gnorm: 0.000904176421 xtb: 6.5.1 (b24c23e)
Zn          37.86754532605806        0.47380223392863        0.31558524245460
C           34.46277717863586        0.33764855182160        0.19010688742868
C           35.13183669395467       -0.88041161510040        0.16306534949971
C           34.49846202742691       -2.16824119628638        0.11491995025841
C           35.48742152150167       -3.09703944803390        0.10691853911105
C           36.73879087001977       -2.38743504826160        0.13922366627549
N           36.48684514593104       -1.04670996619644        0.18164943958872
C           38.00889452405005       -2.97669919208627        0.15074498826666
C           38.07743119481356       -4.45752720155427        0.07089642807055
C           37.61520551227768       -5.12899514193753       -0.99414735674372
C           37.66417462509229       -6.63217134263831       -1.08675973273333
N           38.59969449722398       -7.19279535394358       -0.10798135670476
C           38.88661514531594       -6.51260113459868        1.04788024367977
C           38.68558796813011       -5.18918149195125        1.17362809445431
C           39.22430693235121       -2.28784954268450        0.23060616212445
C           40.52486230862935       -2.89753404843091        0.20176133264389
C           41.43879821294461       -1.89713673172145        0.28229591291561
N           39.37354164508722       -0.92911311435132        0.31758399788571
C           40.70750325899797       -0.66626724951744        0.35307138758652
C           41.29680098791373        0.61100645494574        0.43959702461390
C           40.60382112068321        1.83710605381476        0.48003181241297
C           41.22774268697696        3.12246083975167        0.59600239499097
C           40.23348571203964        4.04665940818230        0.60540650584537
C           38.99101310941036        3.33484762548667        0.48761505123192
N           39.25392864480408        1.99250068224954        0.41925838608181
C           37.72178677755709        3.92388611490384        0.47573471661422
C           37.66433341204104        5.40550663679216        0.55265729337130
C           37.07795846375113        6.03624067851117        1.58077542184447
C           36.99598186338553        7.53833649203919        1.66761311809037
N           37.94775788731238        8.17406007251235        0.75242111779392
C           38.36512173141797        7.52043076421814       -0.37902075350870
C           38.28240451518835        6.18501644579114       -0.51106105570465
C           36.50537116786116        3.23493664738731        0.39710034799478
C           35.20257854682725        3.84269112312026        0.33425295470649
C           34.29380954024771        2.83819987357805        0.25775469547058
C           35.02926694697663        1.60487583655677        0.26194033163326
N           36.36451845085936        1.87847570278857        0.34238549808711
H           33.37858691437371        0.29449277095492        0.15023639917746
H           33.43179648257309       -2.32984553249642        0.09810070466101
H           35.38327816423008       -4.17019461759723        0.09191806491650
H           37.16677298168789       -4.62007843176523       -1.83948703922429
H           37.99716390745182       -6.93875373098595       -2.08753492863811
H           36.65448638453365       -7.05796982337826       -0.93410034440387
H           38.55504460386281       -8.19881069436822       -0.03256104194616
H           39.36603386990897       -7.10791873991916        1.81850038680532
H           38.96507365337779       -4.65964828445692        2.07343756860293
H           40.71286296381547       -3.95615970725725        0.12189670442354
H           42.51425570801590       -1.97731883981696        0.28725938314122
H           42.29113699983452        3.28779920313873        0.66703290095019
H           40.32980832933846        5.11708460149996        0.69142161696325
H           36.61672000412332        5.49185916420044        2.39660617533305
H           37.23226406649042        7.87190584443223        2.68701835490582
H           35.96756901646999        7.87888314164751        1.44282471169036
H           37.82526140355927        9.17297242175809        0.66854840190165
H           38.84389208717611        8.15360699717437       -1.11926176906538
H           38.66311673799565        5.68055496888955       -1.38785034535766
H           35.01275747561053        4.90415287932986        0.33668313813888
H           33.21935383014938        2.91439945929846        0.19515006826159
Zn          85.99300457100532        0.36000406154434        0.31253955478309
C           89.40020423429937        0.46073388183385        0.23221302271150
C           88.75055716796238        1.67252409301060        0.43585642608789
C           89.40402245848773        2.93502021079689        0.63885417539646
C           88.42947285591218        3.86547517126483        0.79782259958688
C           87.16728517261519        3.18418476185831        0.68345721776315
N           87.39813877001605        1.85540289170283        0.47422385677234
C           85.90632934045510        3.78295896780100        0.79084837639646
C           85.86076805517433        5.25336878614264        0.99105016611639
C           86.34179809790842        6.10631516170328        0.07470977881201
C           86.31602306202143        7.60043589955932        0.26865854112500
N           85.37711672208427        7.98038448534066        1.32772535484390
C           85.07189104356797        7.09926334377307        2.33366594293943
C           85.25400137286020        5.77305915632975        2.20884004110387
C           84.67991955435261        3.11257597649065        0.72660886762950
C           83.38940708694410        3.73981368283960        0.79685331013108
C           82.45945851622122        2.75746849434333        0.68472520870250
N           84.50901869121566        1.76370226635614        0.56160586766483
C           83.17093661104910        1.52154091591538        0.53771691352316
C           82.56143775089265        0.25815423694798        0.39917929401734
C           83.23495634833782       -0.96683695845954        0.22602044622795
C           82.59100809211199       -2.24204098381230        0.10766957670568
C           83.57055554043238       -3.16723688136945       -0.05812400160929
C           84.82404765052425       -2.46495908491080       -0.04891952231694
N           84.58235864928565       -1.12933898548993        0.13331124231425
C           86.08373202955916       -3.06048241299930       -0.17918777712017
C           86.11900712621078       -4.52936046532026       -0.39208258536005
C           86.70402362076065       -5.35689890568337        0.48645837730429
C           86.76982635743938       -6.84714217924981        0.27311250661844
N           85.80147278779886       -7.27994047457878       -0.73800491315665
C           85.38427583624164       -6.41179292361210       -1.71478527038450
C           85.48338536367156       -5.07754512171196       -1.58236704420565
C           87.31104228641536       -2.38807929871364       -0.12869105885295
C           88.60439847570483       -2.99275067727926       -0.30871475172777
C           89.52916560557694       -2.00745688729511       -0.18773092824410
C           88.81323457026650       -0.78667063409848        0.05509069035313
N           87.47349462936207       -1.04900400555781        0.07952746913285
H           90.48522329375453        0.49227351416685        0.20684961575711
H           90.47314711304200        3.07840108459309        0.66279394421432
H           88.54963727114686        4.92026009995675        0.98688511921030
H           86.78999243288348        5.75921373754432       -0.84903067368444
H           85.99932662483771        8.09690410753412       -0.65843407960753
H           87.32996840646852        7.97263663996971        0.50843700335763
H           85.43436493702283        8.95346301993746        1.59166514744798
H           84.59414912744775        7.54588875210221        3.19990171287929
H           84.95993148171976        5.08751673196149        2.99097279857038
H           83.21890344018047        4.79833529891732        0.91034754748446
H           81.38546356501517        2.85449021345184        0.69456226149489
H           81.52511385496021       -2.40082172213940        0.15176038206376
H           83.45769310217247       -4.23366840796026       -0.17007289696118
H           87.17748526271394       -4.98930450363544        1.38942606381170
H           86.54075626480501       -7.37444294514487        1.20885418852003
H           87.79206995368132       -7.14512136691776       -0.02778052455629
H           85.91046049014737       -8.24411178185312       -1.01803103681231
H           84.89184778214231       -6.88144980696919       -2.56037313790917
H           85.10296311369140       -4.40627345505013       -2.33924711219233
H           88.77794524691568       -4.03717398682656       -0.51303571220867
H           90.60250143765411       -2.08743927804925       -0.26336786409052
C           46.49619612430536        0.75212228558687        0.59384508367345
C           45.26869811319438        0.72711149413943        0.56287340898143
C           43.92431186706607        0.69416518309007        0.52492313194132
C           42.70154107122686        0.66331002693358        0.48704120803279
C           47.84079090199670        0.77936306502120        0.62274103232009
C           49.06429115094360        0.80561274494669        0.64057982256769
C           62.55105066807999        0.94447281439155        0.72462243048661
C           61.32223400696222        0.95430960632229        0.70616012940343
C           59.97845477625352        0.95834851255805        0.69908315219058
C           58.75386793218070        0.95492540086731        0.68984920440454
C           63.89470769448373        0.93049749943359        0.73657688597560
C           65.11904212164956        0.90836369927851        0.74536028648589
C           78.58770984499385        0.27037913787470        0.51225164905864
C           77.36147696587939        0.32671894596425        0.54850133125389
C           76.01853406051035        0.39792441531818        0.58718487571449
C           74.79779167918466        0.47693971851862        0.62429595241926
C           79.93223005321059        0.24032407554756        0.46916321584656
C           81.15543475304507        0.22763287952406        0.43530223989644
Zn          53.90944470648497        0.89023875423040        0.67196939605616
C           50.46979793148006        0.83295986323471        0.65311327397896
C           51.10566920845253        1.60378273584274       -0.34118362019743
C           50.42102669651084        2.37703437612041       -1.33436853117335
C           51.37210182174517        2.95592519319799       -2.11170314120144
C           52.64764707613737        2.53392735564209       -1.60469009230303
N           52.44848929475314        1.72081482994478       -0.52080173527167
C           53.88990590209387        2.90692150528194       -2.12850673406362
C           53.88593870140785        3.76310300559542       -3.34175244853035
C           53.37142566709865        3.33200428567840       -4.50306333164345
C           53.40196271301181        4.16335778169431       -5.75866648513665
N           53.66451358645860        5.57205036022416       -5.45321919852902
C           54.33519440694310        5.92678090214201       -4.31176229900220
C           54.45027364096266        5.10211133101146       -3.25574974492208
C           55.13869609906268        2.54179783930095       -1.61441566120195
C           56.40607323520583        2.89534262298397       -2.18887319414145
C           57.36872647335191        2.34588390718738       -1.40403246527675
N           55.35383572370491        1.77381025958530       -0.50086186922628
C           56.69885755774780        1.64526983773145       -0.34890151858711
C           57.34981359127642        0.93972692686280        0.68401795135509
C           56.71177380126266        0.21521507951995        1.71244099915616
C           57.39466408728462       -0.46792486384425        2.77029772874407
C           56.44372320399349       -1.05181162081846        3.54444309275298
C           55.17019137576558       -0.73772445368269        2.96023906731291
N           55.37026199120995        0.04526426191220        1.85413202909029
C           53.92869193494009       -1.15480428025741        3.45263844681213
C           53.93202451358226       -2.05182498618133        4.63568057161465
C           54.49425402243415       -3.26877236650311        4.59238226926136
C           54.51814272457734       -4.19285124293567        5.78202882791791
N           53.55206377849866       -3.77127993715571        6.80019165840731
C           53.15813067640098       -2.46063430408225        6.88608301126150
C           53.28634476578349       -1.60062963367489        5.86044116668054
C           52.68023308797588       -0.80703237253705        2.92450383068051
C           51.41403285208530       -1.27346028272877        3.41554567596527
C           50.45220356840735       -0.71934509903919        2.63366230419071
C           51.12108901586475        0.08356733848061        1.65318191023410
N           52.46537870683619        0.01048430697030        1.84704674418354
H           49.34942342016956        2.46619599785722       -1.41678345513799
H           51.22540368873358        3.61865475365494       -2.94928424397248
H           52.96969558438446        2.33126755045161       -4.61199664612936
H           54.16891486797876        3.77611327228952       -6.45583201452366
H           52.43461123759364        4.10258568253274       -6.27563975111959
H           53.83601700398729        6.14217277993709       -6.26872801663239
H           54.69087906187740        6.95209630777443       -4.29468998242248
H           54.91513920018325        5.42708117418671       -2.33578374605273
H           56.54027273339135        3.48158219811018       -3.08393704962933
H           58.43887319779729        2.40046748955887       -1.52629918456543
H           58.46477477159135       -0.48843999066930        2.90270190652832
H           56.59032187564347       -1.63340013151497        4.44027519905703
H           54.97558291815517       -3.64336339351668        3.69643564359482
H           55.53493744298265       -4.23067233423953        6.21619600927489
H           54.25995086064328       -5.21460126220038        5.47215180153183
H           53.64033089439032       -4.26759034910551        7.67518460541126
H           52.65909798635571       -2.19608078465954        7.81292617419191
H           52.92377005892088       -0.58473048293323        5.92800008048150
H           51.27991125441223       -1.94472472804148        4.24849282073581
H           49.38320966480614       -0.84292225307170        2.70481406230727
Zn          69.96097464834790        0.75807535810556        0.73242625250481
C           66.52285678937136        0.87674795569823        0.75041147305637
C           67.18654279880137        1.59893758080770       -0.26308938741397
C           66.53093771077179        2.40187303658973       -1.25201430025338
C           67.50236125215515        2.94277150962311       -2.03166880413265
C           68.76074722796656        2.46142928879850       -1.53498182732030
N           68.53159431609070        1.65370824026095       -0.45230291698888
C           70.01556068025491        2.77711438923265       -2.06580409517645
C           70.04941704237622        3.66756701735456       -3.25352656301709
C           69.49767702891391        3.31124847553998       -4.42293626719242
C           69.56302587405295        4.18767290200658       -5.64641847485591
N           69.90485611104985        5.56705330461290       -5.29007289384733
C           70.61245283149043        5.83775983488217       -4.14775842998857
C           70.69416037093015        4.96678682951560       -3.12656465724335
C           71.24796019422965        2.33062214251731       -1.57600930832250
C           72.52383641598097        2.60624374451846       -2.17408029378166
C           73.46367483904756        1.98245759087518       -1.41789154837379
N           71.43453920245571        1.53877500032253       -0.47475860332662
C           72.77119048830586        1.31861450666151       -0.35329998765314
C           73.39507566192631        0.56621794182001        0.66211865206675
C           72.73553756000895       -0.09524799949531        1.71776767707803
C           73.39682178581968       -0.79902444940848        2.77611256125100
C           72.42891753824860       -1.27862715498126        3.59910199675674
C           71.16530605351379       -0.88534688581995        3.04156023074675
N           71.38963261527729       -0.15801517575109        1.90277324442363
C           69.91092915957499       -1.18635015884228        3.58344491201619
C           69.87862881822311       -2.00115971060218        4.82439972925602
C           70.34293508044055       -3.25857463333911        4.86175285104225
C           70.32931537310900       -4.08919266321009        6.11895766871721
N           69.42874012524837       -3.51721018656302        7.12383662800542
C           69.13816886647921       -2.17714653708174        7.11651355398017
C           69.30325556703291       -1.41008665811588        6.02476845342171
C           68.67624045214767       -0.78495722988304        3.06141622445089
C           67.39457281948650       -1.15737310759927        3.59080801209229
C           66.45203730736579       -0.59105507435052        2.79411504219341
C           67.14812757990782        0.13121998191578        1.77091234763619
N           68.48896748848613       -0.00594561823571        1.95062599394926
H           65.46389147405701        2.53886524934810       -1.32767419339900
H           67.37982879788200        3.61534353400795       -2.86524150885401
H           69.03642987860709        2.34072364508035       -4.56424422533661
H           70.30129491588248        3.78664482808970       -6.36640364972042
H           68.58917862197394        4.20010674577587       -6.15439875456179
H           70.09492870746222        6.15976176269404       -6.08512156348030
H           71.02770678632420        6.83930182518056       -4.09727385595338
H           71.19160710398356        5.22694260759087       -2.20299842407324
H           72.67771691500043        3.19235314075658       -3.06607611863263
H           74.53209194238978        1.96617311449647       -1.56391108596351
H           74.46589516497755       -0.89931353706670        2.87691344869763
H           72.55870974848025       -1.84121713217067        4.50953260383938
H           70.76836880689645       -3.73683517116662        3.98718687159746
H           71.35222453636169       -4.17469364872862        6.53138047738661
H           69.98396006381974       -5.10768013053945        5.89540836072144
H           69.50519377070601       -3.95082326833964        8.03260679329758
H           68.68653773182936       -1.80495134280717        8.03060998816053
H           69.01970240830391       -0.36715152857859        6.02025673801503
H           67.23787532001252       -1.78072403728380        4.45643648826142
H           65.37918593446371       -0.65430924352186        2.88380445812603
