124
 energy: -218.510331241550 gnorm: 0.000657062421 xtb: 6.5.1 (b24c23e)
Zn          14.31691135077788        0.01321175861144        0.00915363616714
C           10.91056725806082        0.03813852218314        0.14567313093433
C           11.54613643797682        1.25821151783041        0.34177397962114
C           10.87835875085557        2.51043128552990        0.56228516976051
C           11.84188683921371        3.45363306858008        0.70944210050443
C           13.11162097887009        2.78614091342000        0.59148722251021
N           12.89669916113617        1.45967745235116        0.35845650145718
C           14.36638151870159        3.40275247803896        0.67650268488555
C           14.38747688434104        4.85655928379521        0.96897624138141
C           13.84948001471527        5.34655438428470        2.16156546521850
C           13.87036607056338        6.70108527071015        2.44122605508747
C           14.42888968714146        7.59733667450236        1.52494598304407
C           14.45035749352611        8.99208603580436        1.80798423036481
N           14.46761866606287       10.11983999401914        2.03612474975562
C           14.96626841662130        7.11298304243111        0.32847797797293
C           14.94609061415290        5.75652109820483        0.05810562391790
C           15.60178123584472        2.76580178262145        0.51337015409705
C           16.88603460165947        3.39476296500790        0.65559723402452
C           17.82548735788740        2.44093527708257        0.43208615009793
N           15.78600053358525        1.44062739375610        0.22213910946589
C           17.12632887997763        1.21918054370514        0.16159847715121
C           17.74976407892231       -0.01326374414930       -0.12051899520767
C           17.08896333774212       -1.23556122917904       -0.35682864315642
C           17.74689040470228       -2.46816005753654       -0.67667346645057
C           16.77841077545072       -3.40703006687477       -0.82886809354354
C           15.51832828589041       -2.75780897906705       -0.59220007231568
N           15.74441735885409       -1.43566689939409       -0.31762707079260
C           14.26430466600225       -3.37540334607574       -0.65994457238358
C           14.23947733329940       -4.82904143554799       -0.95357604311386
C           13.60792795158134       -5.30744295473261       -2.10415698084438
C           13.58371802337193       -6.66175343160312       -2.38462392909487
C           14.18989476013416       -7.56935301784213       -1.51086354899120
C           14.16290041005131       -8.96387765625092       -1.79471609398441
N           14.14087922642156      -10.09153954303942       -2.02303001845820
C           14.82129272004850       -7.09649209857249       -0.35646891519577
C           14.84604138637000       -5.74020256246687       -0.08555173860525
C           13.02949592330280       -2.74013810797788       -0.47706204039253
C           11.74463224517603       -3.38861067012217       -0.49589584029370
C           10.80984137653715       -2.43213140842224       -0.27041829811801
C           11.51128970076754       -1.19035334201961       -0.10111990474132
N           12.85315411067119       -1.41129328031552       -0.22538472387091
H            9.82586817308975        0.04565436215395        0.18929735897668
H            9.80795938567637        2.64130099386974        0.59030255308516
H           11.70880419995625        4.51139077677918        0.87095743024145
H           13.42743648292598        4.65368666235596        2.88087431636588
H           13.45624002576898        7.07225243384948        3.37144220272216
H           15.39695321174118        7.80503958235011       -0.38576375774848
H           15.35255472456431        5.38658158791452       -0.87647219437789
H           17.04777430685665        4.43028166540891        0.90811295906609
H           18.89839733201087        2.54651544244724        0.45454102914822
H           18.81352847761694       -2.59013576201400       -0.77841750291831
H           16.90428065537245       -4.44522668445054       -1.09080386695974
H           13.14755259253264       -4.60593075213922       -2.79077676235524
H           13.09677779088859       -7.02411418211413       -3.28245554199521
H           15.28917040232680       -7.79729153662695        0.32508732245417
H           15.32591515481583       -5.37895418827389        0.81707746150756
H           11.58367024191793       -4.44365176328282       -0.64956794243372
H            9.73873732461916       -2.54690461629465       -0.21371671045784
Zn          32.92348978820703       -0.01587537032118        0.00926216950637
C           36.32974242085700       -0.03242027721249        0.14749795375257
C           35.69460411229918       -1.24077264380452        0.40713584003293
C           36.36280651480763       -2.47961623617310        0.69243309467259
C           35.39956942541863       -3.41372574916206        0.89060172359391
C           34.12959614957065       -2.75333679998281        0.73965033830158
N           34.34410304213798       -1.44116072707411        0.43606688122465
C           32.87481918558189       -3.36389743971631        0.86078593674594
C           32.85376060232866       -4.79966959893070        1.23147686145727
C           33.39743893501996       -5.22572463461469        2.44586047563916
C           33.37697408767905       -6.56334886303826        2.79758799651073
C           32.81307921169610       -7.50683693286118        1.93343995253783
C           32.79348330592301       -8.88439896691884        2.29093618658767
N           32.78009848441688       -9.99805214117317        2.58087958854620
C           32.26946982490592       -7.08659084197229        0.71579573636094
C           32.28944740013448       -5.74657168665321        0.37315264865013
C           31.63924152181965       -2.73616226352199        0.66579445456518
C           30.35515551433942       -3.35563194902387        0.84609530718959
C           29.41540077125667       -2.41582800800078        0.57043056368723
N           31.45467017446695       -1.42949824201077        0.30062114264686
C           30.11420135963788       -1.21160327679350        0.22969006460478
C           29.49059527246899        0.00273295348793       -0.12185462380658
C           30.15129349612847        1.20971979910652       -0.42720736695690
C           29.49318310031767        2.42187488873138       -0.81718972681597
C           30.46135155978304        3.35146361769278       -1.01990363784063
C           31.72137319133906        2.71754459614947       -0.74451996069131
N           31.49561103159430        1.41259779699732       -0.39711102108264
C           32.97514981842867        3.33154735053004       -0.84260162478802
C           33.00019771885329        4.76715233721817       -1.21418135992570
C           33.63807718958228        5.18348342964592       -2.38530247378444
C           33.66394135185224        6.52080289076236       -2.73782820219819
C           33.05270686471474        7.47366265640310       -1.91738278762048
C           33.08011718319946        8.85126570865841       -2.27438081825596
N           33.10162331968329        9.96498217678498       -2.56358223488564
C           32.41459068938313        7.06304567878956       -0.74305119644207
C           32.38847854163047        5.72325745614245       -0.39983095304951
C           34.20992235680557        2.70798862783529       -0.62257249475781
C           35.49435545227801        3.35565644221869       -0.67265379536868
C           36.42941880366343        2.41299552818707       -0.39592967435417
C           35.72854626606216        1.18123610393113       -0.16325459241067
N           34.38670836261562        1.39438533910626       -0.30092479773990
H           37.41443544775289       -0.03716277039026        0.19161222301017
H           37.43326700016252       -2.60876111062377        0.72564061953282
H           35.53306605813896       -4.46149981855467        1.10737839889363
H           33.82367401508472       -4.49586608950211        3.12498590608969
H           33.79563935466572       -6.88484260897801        3.74413030946112
H           31.83422906801471       -7.81523299207648        0.04183735721921
H           31.87841241433102       -5.42677804061681       -0.57779887474393
H           30.19363569194946       -4.37492283885495        1.15786346037269
H           28.34254146437061       -2.51987377749062        0.60088210426487
H           28.42666456738057        2.53692808869750       -0.92790124439547
H           30.33534678543453        4.37319148135035       -1.34001615152741
H           34.10234321533463        4.44629615596331       -3.03069118501849
H           34.15616056331233        6.83455579837901       -3.65098280944575
H           31.94270535598689        7.79926293659091       -0.10288726672794
H           31.90368669013447        5.41086117495645        0.51825926504182
H           35.65492494426773        4.40142422612329       -0.88051864210574
H           37.50032108303562        2.53152671398193       -0.34337564966547
C           19.15405619659660       -0.02251621456418       -0.16427471800467
C           20.37838192752364       -0.02287959905699       -0.19357566644558
C           21.72069353364774       -0.02015082187663       -0.21664179077099
C           22.95129974234861       -0.01130039920499       -0.22848239863999
C           24.28903869730139       -0.00377067278286       -0.22759874846720
C           25.51966734859503        0.00351325302116       -0.21687872768018
C           26.86198106062647        0.00783190152407       -0.19451442712622
C           28.08630806148772        0.00980736157545       -0.16574715923275
