366
 energy: -571.057899570233 gnorm: 0.000940946906 xtb: 6.5.1 (b24c23e)
C           51.85123050680487        0.09995283125434       -0.02076598902502
C           52.47001701608807        1.29346321657365        0.32832317408686
C           51.82873176421415        2.50650682699810        0.70596345376805
C           52.79901372709217        3.43536571149003        0.95761565143609
C           54.06454131430995        2.82247933327926        0.73200125573287
N           53.81516483935970        1.53047465783348        0.36467114987800
C           55.33198093893591        3.39985048070092        0.86871479479629
C           56.54212085097500        2.73184126285242        0.66973875997443
C           57.84346036812443        3.36954165414985        0.75935709434197
C           58.75798494075500        2.40944305113686        0.51036948943426
N           56.68836297176138        1.41553419728546        0.35218315576658
C           58.01422551410340        1.18995435564063        0.26004062147969
C           58.64274773449117       -0.04003798485186       -0.02322679027338
C           57.99679619090194       -1.25676811684043       -0.31420443708105
C           58.63041357117190       -2.50026185557791       -0.57690601548973
C           57.65590960156771       -3.42473630206511       -0.83297581320864
C           56.39584457765579       -2.77089199520917       -0.74252362949836
C           55.13019615678103       -3.33735787342225       -0.92534767205759
C           55.08796298569266       -4.76980015045586       -1.30905108755497
C           54.45762694045339       -5.70058877102425       -0.48377001714455
C           54.41895438941059       -7.04519565185860       -0.83564727982209
C           53.72585253198134       -8.04459534848798        0.05063898939143
C           55.01228994760674       -7.45635000886532       -2.02578976152659
C           55.64457833074029       -6.53999079189311       -2.86054390872059
C           56.26482125421015       -6.99224755077989       -4.15497822819964
C           55.68038370537813       -5.19816339841225       -2.49639760139040
C           53.91885233968666       -2.65448557395512       -0.77333402925002
C           52.61126932614488       -3.24394711690894       -1.01585884753702
C           51.70372187731243       -2.28089157080760       -0.75727932749150
C           52.45584762646779       -1.10073534693386       -0.36925722863624
N           53.78615028070761       -1.35985021071560       -0.39902910659298
N           56.65403988332260       -1.46505235340112       -0.41694365569919
C           55.37245397177252        4.83209920830566        1.25593729933147
C           55.98315311934022        5.22040147054687        2.44698939501121
C           56.01655985432141        6.56025217497740        2.82073914633659
C           56.68996908418747        6.96776089148755        4.10332457304065
C           55.43739175825208        7.51410523925982        1.99039771724972
C           54.82423232247270        7.14246370740054        0.79693297253889
C           54.21933167655340        8.18656246981296       -0.10239998991003
C           54.79357805686108        5.80029563761564        0.43560477408442
H           50.76595833095319        0.11737860404181       -0.01993576247344
H           50.76063385771703        2.63668840832185        0.77786784626589
H           52.65689755281078        4.45441022948056        1.27909189146761
H           54.53444589105684        0.84675980033153        0.15403776931156
H           58.01175527055329        4.41310926968030        0.97068531112481
H           59.83265397998875        2.49395907726593        0.48499089962593
H           59.69679428040145       -2.65832231451918       -0.56447776728420
H           57.79379717012586       -4.47015032410207       -1.05600281617073
H           54.01330498260874       -5.37075787955460        0.44891013723083
H           52.70232259296330       -8.20153277076487       -0.29744436003856
H           54.24126147940721       -9.00519871597380        0.02844869051407
H           53.68432440665923       -7.68937149899531        1.08031784633347
H           54.98427822119957       -8.50484681649021       -2.30421683667909
H           57.08414703515289       -6.33397226613749       -4.44447593436640
H           56.64334789184081       -8.01104059048731       -4.06869927344698
H           55.51680978892342       -6.97451595868677       -4.95095199812064
H           56.15769586884272       -4.47293469404612       -3.14646744835660
H           52.43709334598126       -4.25406610991628       -1.35016368832573
H           50.62800415221236       -2.33106473911636       -0.82247409731768
H           55.93776084602843       -0.76142751599014       -0.27040446117926
H           56.41774577950147        4.46638604893855        3.09406185010961
H           56.49404523734712        6.23922312208525        4.89071428538130
H           56.34195021780354        7.94658071336156        4.43324039689262
H           57.77076705106968        7.02119599048062        3.95423826863855
H           55.46041812989323        8.56051074772461        2.27697812628669
H           53.79850254159663        9.00490833336471        0.48245915720720
H           54.98740010174866        8.60017053115268       -0.75994426894639
H           53.43432553507493        7.75685510419661       -0.72487593449337
H           54.33114664731083        5.50081993756393       -0.49867607817977
C          122.72021602023632       -0.10433826299680       -0.06257274165741
C          122.09679056245351       -1.31173694145249       -0.35021260019405
C          122.73310954642932       -2.55388657141237       -0.62867255539199
C          121.75890282536523       -3.48201038004918       -0.86762385269522
C          120.49587084895664       -2.83455548191102       -0.75126843556656
N          120.75059551365695       -1.53145837779874       -0.42979847163305
C          119.22616426533257       -3.40137784754682       -0.90845077951155
C          118.01840125438753       -2.72103719022436       -0.74019141798561
C          116.71426314478126       -3.31997581328327       -0.96049581737702
C          115.80333778228886       -2.35922011074384       -0.70137906758882
N          117.87713601373835       -1.41696582135993       -0.37326147275144
C          116.55203932160215       -1.17276435645565       -0.33400178764192
C          115.92778798137488        0.04521458095552        0.00580625429904
C          116.57781230025259        1.25057879781719        0.33226601825597
C          115.94873194044560        2.46871542889099        0.70251551213614
C          116.92716150428717        3.39499664996770        0.93622067659004
C          118.18527834370001        2.77218465849177        0.70650236895384
C          119.45371735267223        3.34690789826709        0.83597736879449
C          119.50363183943399        4.78152527032020        1.21091036845970
C          120.12574747449391        5.17605016099376        2.39506417974297
C          120.17320186303154        6.51808063306683        2.75540086073918
C          120.85731530610715        6.94159733102867        4.02713738059490
C          119.59721712841332        7.46980321998207        1.91870541324345
C          118.97341720198587        7.09249959332768        0.73346431374845
C          118.37279234440358        8.13214462981796       -0.17384200026841
C          118.92834270024144        5.74665287108591        0.38534266754919
C          120.66251739860229        2.67074522316433        0.63982568840214
C          121.97273763995953        3.29687648051795        0.72598865151174
C          122.87677059073259        2.32786453289920        0.47765468027671
C          122.12000165159388        1.11363265402526        0.22882238664605
N          120.79039286159329        1.35954068120029        0.32659796119757
N          117.92177893863361        1.47501701386167        0.35168180435006
C          119.18011865993631       -4.83608958420447       -1.28649641186509
C          118.58167201702571       -5.76793119882471       -0.44052236871227
C          118.54022434760742       -7.11451433560676       -0.78835412271719
C          117.87918957132652       -8.10921212478770        0.12716163783695
C          119.09861946093579       -7.52450491780310       -1.99458334286881
C          119.69989950842489       -6.60584751451820       -2.85063306187196
C          120.28141723230600       -7.05879842414179       -4.16268634434395
C          119.73934211107317       -5.26354806157381       -2.49056400703519
H          123.80541421570079       -0.12369420852853       -0.07131278299046
H          123.80076067016456       -2.70558440350994       -0.63647670774036
H          121.89641971464714       -4.52633489752588       -1.09675003993379
H          120.03421666175024       -0.83125392829581       -0.26940735255333
H          116.54154178621796       -4.33410872811286       -1.28249583507188
H          114.72810107329467       -2.41955370532990       -0.75501308543555
H          114.88255320420396        2.60675920243973        0.78339084526651
H          116.79313602022452        4.41744981030615        1.24971645805086
H          120.55699737610654        4.42371288464085        3.04631317218911
H          121.88301695768152        7.24953569616815        3.81149569800723
H          120.33975255878303        7.78634485418754        4.48261893469719
H          120.89190104503622        6.12045509459141        4.74313762732009
H          119.63239573815913        8.51841732721697        2.19588203420001
H          117.55849675984152        7.71036784252142       -0.76328245872712
H          117.99229764909228        8.97623903765489        0.40184293512138
H          119.13306339538757        8.50681440731854       -0.86306838298987
H          118.45758158815482        5.44264573082540       -0.54327714822267
H          122.15092099570620        4.33937983877633        0.93546605700175
H          123.95292491879363        2.39884423263544        0.44957126903445
H          118.63554018703093        0.78453573589935        0.14332528464282
H          118.16255792091509       -5.43898951778188        0.50406215307688
H          118.08113272289901       -7.86719258259200        1.17105366181755
H          118.23149107305366       -9.12057436249394       -0.07558668676240
H          116.79716583085023       -8.08780309890151       -0.02122455535804
H          119.06832826480787       -8.57341697217255       -2.27114280741384
H          120.69682027883428       -8.06319241987591       -4.07645537890240
H          119.50107798316019       -7.07937822965635       -4.92691275364690
H          121.06584408273679       -6.37923507078214       -4.49621418180345
H          120.19280736155930       -4.53677624945833       -3.15583680584472
C           63.84513124298478       -0.12430764649465       -0.01512293993034
C           62.61660560976697       -0.10926190808456       -0.01555261618092
C           61.27229988399420       -0.08998956743278       -0.01623878379326
C           60.04837987914146       -0.06848939934369       -0.01847765372023
C           65.18939824956495       -0.13105252244158       -0.01305712279281
C           66.41367082910584       -0.13063167751216       -0.01518825839645
C           79.88281269254686        0.00569859737188       -0.00181622860955
C           78.65381264233034       -0.00901156650774        0.00066130159462
C           77.31067635406008       -0.02041279324262       -0.00447574855987
C           76.08614911831332       -0.03899768933166       -0.00840893903859
C           81.22599480286571        0.00876978801563       -0.00173881457553
C           82.45065107952119        0.01713508396461       -0.00421113614341
C           95.91783926850347        0.01135595180714        0.00236561447396
C           94.68879730302329        0.00305977388692        0.00501072672704
C           93.34564876089526       -0.00087907669562        0.00621091918119
C           92.12100427455933       -0.00920897919461        0.00209834517736
C           97.26099769109121        0.01144000832823       -0.00355783168801
C           98.48563247236055        0.01868934886989       -0.01105441789092
C          111.95383455748620        0.09381949821137        0.03350245960160
C          110.72524689629377        0.09124398298391        0.03645908324268
C          109.38101335473685        0.08634550173732        0.03183839645912
C          108.15676116487448        0.07243723360326        0.02604712391906
C          113.29820545554209        0.08521198355483        0.03001113937041
C          114.52221461277830        0.07100933836812        0.02109808164778
C           67.81858465560829       -0.12186379673822       -0.02023404576695
C           68.45544343589256       -1.29498657800982        0.42899145062356
C           67.81700993219491       -2.46766306363103        0.90877302363069
C           68.78994685465128       -3.37254166324560        1.23591947210593
C           70.05148139178890       -2.78025945409439        0.95688532619673
N           69.79834638577280       -1.52206582264219        0.47888974724694
C           71.31555752391313       -3.35156172403876        1.14688247691404
C           72.53573944726719       -2.72059071082997        0.90214559438608
C           73.82605740787959       -3.36763822866252        1.05956675846855
C           74.75787021946415       -2.44638637751226        0.73829892143802
N           72.70521372163171       -1.43866109593663        0.47393837280267
C           74.03520003131182       -1.24342670285026        0.37568052578903
C           74.68251128004609       -0.05365502757418       -0.01601332705899
C           74.04496727608748        1.13495943785783       -0.42251836043723
C           74.68295831852514        2.34466534105050       -0.79958983593843
C           73.71009858717392        3.24502528755461       -1.13888800520279
C           72.44918668401617        2.60705906761062       -0.98564304698276
C           71.18577272402123        3.16299642473324       -1.21995933681325
C           71.16571808430545        4.55414235119151       -1.73859027336131
C           70.56768874394001        5.57357181769573       -0.99856955624167
C           70.54851099888269        6.87762729917727       -1.48028460594120
C           69.92132387875216        7.98003840179738       -0.67048366787998
C           71.13233352950462        7.15875915331370       -2.71251498031226
C           71.73077268484090        6.15239324268423       -3.46374518744905
C           72.37369639103852        6.46705823370325       -4.78750902011074
C           71.74719873798591        4.85188358240142       -2.97001013380053
C           69.96516315391540        2.52021013683107       -1.00881714651205
C           68.67525270806391        3.11501847221577       -1.30955463347076
C           67.74341477026104        2.20086183736814       -0.96867559087166
C           68.46555033825324        1.04618023685972       -0.47237996167562
N           69.79578495623068        1.26215566330489       -0.51536354498257
N           72.70263421154890        1.33648752912311       -0.54155631499594
C           71.34125676607832       -4.74741565876646        1.65287059256437
C           70.78140492289565       -5.77936482384282        0.90203086892120
C           70.81267722463174       -7.09005994299955        1.36840804872631
C           70.19794641220133       -8.19537769862565        0.55282835297084
C           71.40213053648948       -7.36188491579406        2.59855518919978
C           71.96309944576315       -6.34134762301785        3.36171494428728
C           72.58115473408145       -6.64649239036978        4.69937303972544
C           71.93065027934925       -5.03648590888041        2.88335669410145
H           66.74963415309861       -2.59239451219987        0.99474089943107
H           68.64863547828762       -4.36041338584088        1.64303483817450
H           70.51315922958399       -0.85430438317086        0.20985025057775
H           73.97610414707535       -4.39139193415538        1.36176818251841
H           75.83132887807059       -2.54810624555491        0.73070302402267
H           75.74983256408883        2.49937274546726       -0.80340629443810
H           73.85111328291813        4.26458091207615       -1.45848896151758
H           70.12768201544522        5.34427462483196       -0.03428811619352
H           70.69063694392075        8.50630707550093       -0.10082127409745
H           69.42763540864789        8.70370465040704       -1.31976555726086
H           69.19069636260676        7.57983642910720        0.03242648331300
H           71.11689626781296        8.17501035859173       -3.09280363668319
H           72.28820110093071        5.62192987155159       -5.47095556954832
H           73.43547122103749        6.67948213798493       -4.64249729758866
H           71.91198797330459        7.34130487075980       -5.24663150267313
H           72.19671209871117        4.05627716551795       -3.55424316000240
H           68.52526857494350        4.09396132191338       -1.73509656130092
H           66.67022007649109        2.27273193378120       -1.04447260269202
H           71.98843084089094        0.64831935692321       -0.32806207287557
H           70.33873119699842       -5.55839344980491       -0.06315980052906
H           70.61103885231931       -9.16390190219883        0.83460364508248
H           70.37202430650021       -8.03316955392763       -0.51133040217953
H           69.11851750236350       -8.22291548916752        0.71832240384761
H           71.42939814893769       -8.38232421675252        2.96675903380806
H           73.32223947501176       -5.89313789323000        4.96665184439868
H           73.06009736359911       -7.62597069168003        4.69020983486522
H           71.80895750578361       -6.65429418481403        5.47204260912905
H           72.35490760628159       -4.23116528210383        3.47286041186168
C           83.85433610229872        0.01201088965782       -0.00944063422045
C           84.47670264730749       -1.16281296587007        0.45683553774121
C           83.82343628437387       -2.32098787222990        0.95107502154460
C           84.78467442525879       -3.23679573590140        1.28250065711411
C           86.05323638553708       -2.66560015037354        0.99210006581829
N           85.81622533944265       -1.40782267733845        0.50474881898282
C           87.30958848262460       -3.25485305081685        1.17899665843589
C           88.53771698148796       -2.64217056902071        0.92762898001964
C           89.81980947210288       -3.30499078642246        1.08535119940263
C           90.76280915170202       -2.39681692684717        0.75927227450177
N           88.72284260896474       -1.36438148201795        0.49312127244211
C           90.05501109282839       -1.18640358413654        0.39218154539304
C           90.71735824967369       -0.00710213642815       -0.00624728284942
C           90.09535071509202        1.18690586091032       -0.42137093159789
C           90.74860753943418        2.38598466028034       -0.80589721635953
C           89.78726468125102        3.29584619071996       -1.15305050454473
C           88.51859764601649        2.67434574170871       -0.99756275438899
C           87.26213859170164        3.24317421776317       -1.23914452081476
C           87.25760947667125        4.63050294300057       -1.76799264929835
C           86.66567832340689        5.66032983982804       -1.03728773189348
C           86.65626437773336        6.96033542031811       -1.52971872169349
C           86.03400055233085        8.07341164748149       -0.73078225472685
C           87.24403582539108        7.22714945292240       -2.76339921142260
C           87.83709572931267        6.21060853647609       -3.50489061803785
C           88.48343628039694        6.50819177599661       -4.83093337586644
C           87.84383276763432        4.91400317857627       -3.00032783076089
C           86.03384334936577        2.61619690890176       -1.02646060871929
C           84.75162572081547        3.22198344725895       -1.33787484173131
C           83.80853383741542        2.32199502505120       -0.99001426507918
C           84.51631717560127        1.16520154175367       -0.47853025270598
N           85.84860998155649        1.36523199530729       -0.51999935103555
N           88.75573805189362        1.40398198743030       -0.54410152927338
C           87.31420056704739       -4.65032618868467        1.68590579983174
C           86.72577524902316       -5.67025067256230        0.94008471704028
C           86.73265064004038       -6.98117376333100        1.40613051031294
C           86.08422466570630       -8.07283898173077        0.59835082920218
C           87.32797035034723       -7.26584138760272        2.63068620722101
C           87.91794926659232       -6.25773433106476        3.38836258071257
C           88.54234429081212       -6.57676102869954        4.71982108456617
C           87.90846920698176       -4.95209857715030        2.91084388107539
H           82.75482244636164       -2.42993062621042        1.04249571111643
H           84.63060917202269       -4.21840154090023        1.69992394687437
H           86.53932856704333       -0.75378573315485        0.22439571654167
H           89.95747637172140       -4.32924867420757        1.39169813982321
H           91.83489270310113       -2.51207752758564        0.75091296628818
H           91.81727651934075        2.52777620535461       -0.80930290324934
H           89.94119420756863        4.31133215118868       -1.47959862678420
H           86.22203634011420        5.44181117972407       -0.07216756994245
H           86.80601678223576        8.60461203692294       -0.16944815656579
H           85.53992090775245        8.79058825986409       -1.38696056444258
H           85.30449362789849        7.68288820958240       -0.02128619182083
H           87.23550523705694        8.24017997961204       -3.15239106410446
H           88.36291162599254        5.66971512047543       -5.51739633639916
H           89.55318986460810        6.68044163723875       -4.69162355547285
H           88.05122696291845        7.40063092351477       -5.28361836276104
H           88.28864266037837        4.11056239889332       -3.57739188440956
H           84.61394335664397        4.19771281610574       -1.77480041913590
H           82.73638196951107        2.40465636187567       -1.06992495415902
H           88.03277905598607        0.72617706589656       -0.32697292642558
H           86.27914033836234       -5.43945928293231       -0.02097199688559
H           86.50886814685440       -9.04570560116415        0.84605297298037
H           86.21235553899254       -7.89260773318887       -0.46933188138148
H           85.01293394628973       -8.10431505566002        0.80995491528080
H           87.33653236243619       -8.28667666590411        2.99869300519397
H           89.29404960388858       -5.83338975435807        4.98532399994471
H           89.00996320393035       -7.56159464945896        4.70184274626478
H           87.77594589397944       -6.58001771068006        5.49825613146128
H           88.35398591350744       -4.15608567821527        3.49728224848244
C           99.88928475280316        0.01977901509317       -0.02037224548481
C          100.52036111223927       -1.15218377599867        0.44068477610480
C           99.87608833190409       -2.31779977759168        0.92942324594588
C          100.84411224350850       -3.23026198207993        1.24971688638864
C          102.10825842738747       -2.64924998540694        0.95855299653913
N          101.86155398579183       -1.38926234256363        0.48175907882838
C          103.36866198409072       -3.23250425963418        1.13573954827501
C          104.59246258154256       -2.60812263595133        0.89016660834607
C          105.87946031576418       -3.26359854909091        1.03913196575887
C          106.81595054857296       -2.34302871562193        0.72944523173146
N          104.76809929623201       -1.32284045899972        0.47559884907060
C          106.09957897391999       -1.13205624505832        0.38115267776408
C          106.75201363074775        0.06143475887569        0.01115013310565
C          106.12032335950921        1.25616189763697       -0.38592048941608
C          106.76358819092570        2.46777685738859       -0.74799219002344
C          105.79581637084129        3.36945666727958       -1.09855903452545
C          104.53300776468109        2.73068881062916       -0.96713189880717
C          103.27314931260031        3.28493996213754       -1.22448956521101
C          103.25687687472143        4.67378235366531       -1.74918075021053
C          102.63909050046193        5.69252049110885       -1.02398675274936
C          102.61461621339613        6.99308195152581       -1.51391141903424
C          101.96409990999537        8.09446840656922       -0.72130325211955
C          103.21277304297716        7.27188160385415       -2.74012975571616
C          103.83152391205464        6.26684228973271       -3.47584828745808
C          104.48653772888900        6.57534447098909       -4.79516135778909
C          103.85403318154596        4.96940054728709       -2.97317755587940
C          102.05007411413294        2.64228632978402       -1.02963756165041
C          100.76440526176707        3.23331270597026       -1.35518168514468
C           99.82772949532603        2.32500318916559       -1.01176113955732
C          100.54314179546648        1.17718464374640       -0.49070316827737
N          101.87355882605820        1.39008469184518       -0.52319713334725
N          104.77964328950304        1.45897674726054       -0.52285781355254
C          103.38174155640371       -4.63280055219896        1.62914762596533
C          102.79416650357561       -5.64835479822384        0.87635574772052
C          102.80402369957474       -6.96259620973186        1.33246560558397
C          102.15528252835735       -8.05027708843513        0.51954166943583
C          103.40147033861378       -7.25536781155628        2.55425044620454
C          103.99108778956587       -6.25211928668377        3.31836182659582
C          104.61653385560874       -6.57961783136209        4.64726072717396
C          103.97891075536981       -4.94288897078347        2.85049833034205
H           98.80848991769210       -2.43365563806478        1.02425205032922
H          100.69767565203448       -4.21593040692338        1.66025758999755
H          102.57944255118309       -0.72828873336373        0.20434469773248
H          106.02440261314310       -4.29152869493663        1.32948633136879
H          107.88892169133923       -2.44975771453113        0.72171941388175
H          107.83042701002978        2.62237847001184       -0.73567118249355
H          105.94119678495231        4.39018645893809       -1.41251533428445
H          102.18645975182322        5.46451709947653       -0.06525776857534
H          102.72143557506060        8.64424460157427       -0.15787801817586
H          101.45770561164812        8.79868958858981       -1.38215576203454
H          101.23970231112800        7.69014839514558       -0.01432320799974
H          103.19164994235615        8.28533601352911       -3.12753826100521
H          104.33396092527120        5.75945853127824       -5.50236040575032
H          105.56219671057336        6.70402792231230       -4.65481811334486
H          104.08610023551444        7.49389460340391       -5.22408491544932
H          104.31938104262352        4.17476155766044       -3.54623734436544
H          100.62041897962519        4.20576357879302       -1.79734413702223
H           98.75554329758600        2.39602754215184       -1.10169475291254
H          104.06210526882813        0.77030627939495       -0.32260106932292
H          102.34512252145136       -5.41090286644340       -0.08195602263427
H          102.60698149175452       -9.01886199971618        0.73421191263774
H          102.24839974642626       -7.84523517391783       -0.54721240590132
H          101.09159189696385       -8.10947724353646        0.76154167457816
H          103.41143667603990       -8.27883872364879        2.91484549689695
H          105.37388078752099       -5.84220484928502        4.91333294001704
H          105.07723663175364       -7.56759961158179        4.62528891809460
H          103.85186201106609       -6.57982018760730        5.42742392073386
H          104.42364400131653       -4.15055976455883        3.44248949501710
