250
 energy: -430.709751105261 gnorm: 0.000440025161 xtb: 6.5.1 (b24c23e)
Co          47.60278478689442        0.02939105347758        0.03797567418011
C           44.23463611411430        0.11405323310670        0.14027971309627
C           44.89183411522468        1.05158498219936       -0.62816035602820
C           44.23457901923588        2.04128455873108       -1.42536027953363
C           45.19653043960960        2.88884859589188       -1.86262320018047
C           46.43803860778632        2.42458593314487       -1.31666810624189
N           46.24891507579843        1.25759203664442       -0.62251253586417
C           47.63311910779247        3.13321790170387       -1.37294173632891
C           47.64616267634450        4.48072930039722       -1.98078744181735
C           48.49984279403873        4.77296821330773       -3.04796335446218
C           48.51328227369960        6.03129874141676       -3.62214303899439
C           47.67990046443960        7.03748992005210       -3.12618591171564
N           47.66287980410343        8.28597340429814       -3.72168462985785
C           46.82143558615076        6.75311693976526       -2.06069810693794
C           46.80600861270764        5.48877894033815       -1.49998911450117
C           48.81299880284386        2.60849452980659       -0.86416871074919
C           50.05875230387881        3.31323412460027       -0.82496774573942
C           51.00353334672763        2.41796688086405       -0.44618396910404
N           48.98515692872416        1.31088178473772       -0.43889522890317
C           50.33062881934654        1.17452316121283       -0.24458814821870
C           50.99160636140127       -0.03693156310120       -0.02137663546474
C           50.29249660107281       -1.22483165692313        0.21251364854905
C           50.92240816159670       -2.49646619963067        0.37218759675423
C           49.95486867859068       -3.36243948671062        0.76164064347581
C           48.74002818307105       -2.61030206224745        0.85558230017443
N           48.94956160458803       -1.31260475819735        0.44647707955207
C           47.56155324909032       -3.09273986579646        1.40707660052369
C           47.53765408228100       -4.45139269100488        1.98925019585886
C           48.42365433432651       -4.80717695725485        3.00975502189578
C           48.39996815276250       -6.07615864188177        3.55973206168244
C           47.49475732468261       -7.02941254582763        3.08555594991520
N           47.44235675118114       -8.28757678932693        3.65847828867792
C           46.60275245918733       -6.68085258529123        2.06776674618745
C           46.62538601158353       -5.40611625626392        1.53143423885036
C           46.40090118356003       -2.32676548356303        1.42741997801166
C           45.17291065784907       -2.73665556660578        2.04289312346357
C           44.23261263935055       -1.82998309434475        1.68417784949494
C           44.88982821051293       -0.86216410704710        0.86041515812133
N           46.23112455099864       -1.13912155204550        0.76465224984955
H           43.15187377648930        0.14270076811521        0.17573778446063
H           43.17256630990898        2.07019003442807       -1.61104345943418
H           45.08771428726152        3.75404044529984       -2.49640203582179
H           49.14266724175189        3.99497839921965       -3.44499869585265
H           49.17094803923514        6.24188534267437       -4.45842179693832
H           48.49541185350467        8.52661717028838       -4.23528816326075
H           47.30890485289593        9.03112492794046       -3.14362261791449
H           46.17096275742532        7.52945482964195       -1.67283531147800
H           46.15104960537794        5.28220928812988       -0.66062214821086
H           50.18383122453336        4.35844404730546       -1.05687851753854
H           52.06327619648458        2.56905359341109       -0.31722187539680
H           51.97100270048887       -2.68554772092932        0.20708771123094
H           50.04585118138265       -4.41625717865890        0.96921132349204
H           49.12209021166041       -4.07018432289284        3.39082580289738
H           49.08390452594220       -6.33611030666602        4.36033508001741
H           48.28537452954391       -8.57983554648773        4.12622196101934
H           47.02524075700828       -9.00205789143542        3.08367046140208
H           45.89578765934792       -7.41547251173916        1.69786469973335
H           45.94250121560628       -5.14946934079278        0.72892530804410
H           45.05799263039209       -3.60771541825014        2.66750872321857
H           43.18456133414237       -1.80651200800046        1.93758592799299
Co          87.76120347135895       -0.02611799933202        0.04688543357186
C           91.13090366517224        0.00627955998555        0.17667383855526
C           90.47143371286126       -1.14981590328500        0.53607519603504
C           91.12808869880321       -2.35956469367205        0.92641697120759
C           90.16498871209301       -3.19190980663691        1.38907739160453
C           88.92299768042804       -2.48224077441396        1.29539538418810
N           89.11361415478223       -1.25907307982223        0.70558398383579
C           87.72563975913832       -2.92550012110604        1.84470043593210
C           87.71324834908683       -4.17595993246090        2.63409970635258
C           86.87639391526325       -5.23714059356023        2.27910146160824
C           86.86502028765827       -6.40863495436924        3.01479809344376
C           87.68346400989653       -6.53830272132131        4.14000207830063
N           87.70310671230422       -7.72193389432817        4.85627447419449
C           88.52536838884983       -5.48275515835227        4.50044868698514
C           88.53884365926712       -4.31925946631852        3.75255178705250
C           86.54407031541108       -2.21684885124496        1.67883885930657
C           85.29436166124076       -2.58507640619489        2.27276130634441
C           84.35105422434489       -1.77402919415809        1.73498205848001
N           86.37539306899995       -1.13902071882252        0.83975593219745
C           85.02853699555881       -0.90623117037858        0.82506711535132
C           84.37130638875009       -0.03497810798424       -0.04669194060095
C           85.07077943182165        0.83153764135448       -0.88972740717565
C           84.44042697600888        1.68404473538727       -1.84651275622332
C           85.40957794016478        2.48826168575392       -2.34749395185926
C           86.62615329287527        2.13532390604396       -1.67982074802385
N           86.41574688298994        1.06843615785371       -0.83580621531215
C           87.80857784240962        2.85474419349900       -1.77997916477444
C           87.83451092807312        4.09667770947968       -2.58224926523716
C           86.96147084933044        5.14981087622910       -2.29688197985797
C           86.98694767330056        6.31470923351131       -3.04248508396978
C           87.88117596212835        6.44592742519257       -4.10824931347133
N           87.93611734696728        7.62395173345438       -4.83207171052263
C           88.76026651735229        5.39902180373504       -4.39812378374104
C           88.73567975061054        4.24199540237422       -3.64044056416342
C           88.97036885338895        2.43721746125816       -1.14098919460972
C           90.20235038065847        3.17001598471043       -1.14714313141363
C           91.14059055622580        2.36468553786320       -0.59439375900227
C           90.47849590765354        1.14642209141059       -0.24133939017602
N           89.13659345856949        1.22594067736040       -0.52047809875313
H           92.21363831846364        0.01797309483970        0.22091955582829
H           92.19065479144521       -2.52927047224264        0.85319071057762
H           90.27276965804435       -4.19704845215916        1.76345633353042
H           86.24497864022258       -5.14817242024681        1.40184692515476
H           86.22038537280478       -7.23012141282313        2.72169740908436
H           86.87721619001645       -8.29134143290594        4.76381155259929
H           88.04189310177668       -7.64363153895869        5.80172865302266
H           89.16447167112167       -5.57841407459240        5.37147805508997
H           89.18107182016016       -3.49755825502104        4.05012897903795
H           85.16601116556544       -3.36388126952443        3.00684093864353
H           83.28952468252089       -1.75622282703930        1.92289830210193
H           83.39041530741964        1.65950495509942       -2.09031433898974
H           85.31886932324755        3.25400687884434       -3.10067004340536
H           86.27155255982878        5.06026293516741       -1.46491671422837
H           86.31290443575965        7.12997039567794       -2.80307503836582
H           87.09761671149639        8.18169949128007       -4.80430804374385
H           88.34161244691610        7.54217285167810       -5.75065426118185
H           89.45872973603144        5.49633953008290       -5.22212146964500
H           89.40851354968028        3.42693820375452       -3.88376334468661
H           90.32082516237254        4.17163830071919       -1.52768879369498
H           92.19027689183315        2.55719280489553       -0.43855762671643
C           53.61620467360393       -0.07617528786804       -0.04418086957602
C           52.39329547842731       -0.06066885720327       -0.03532315596566
C           54.96404833066202       -0.08602100803212       -0.04888113586949
C           56.18726271908730       -0.08964316083776       -0.04943279554248
C           67.00277653190881       -0.07273114326965       -0.10171653174657
C           65.77927797942134       -0.07439383549466       -0.08849019170418
C           68.34978207961852       -0.06762853166274       -0.10795710369111
C           69.57319649642547       -0.05669136689504       -0.10065202469075
C           80.39575265921809       -0.02826276068264       -0.09441842589056
C           79.17336948701822       -0.02542924457584       -0.08892231836157
C           81.74532375639205       -0.03083991882697       -0.08853959298438
C           82.96741947955856       -0.03112448819820       -0.07506918808796
Co          60.98458396888101       -0.07565460480635       -0.03257303598382
C           57.58871130700206       -0.08609408426428       -0.04264850896575
C           58.26783690922381        0.98707248897123       -0.62830405810563
C           57.60403255028370        2.09019465512592       -1.24564946056904
C           58.55379597817944        3.02588648426120       -1.48986400168382
C           59.79641799637967        2.48299887127973       -1.03233068366790
N           59.61239815318307        1.21132489743015       -0.54130034495506
C           60.97396862552878        3.21301154595071       -0.92996203089293
C           60.96901818561158        4.64324581799325       -1.31505396231456
C           60.72037262659477        5.02563452996549       -2.63493601310134
C           60.72124865160838        6.36107592694026       -2.99690177607682
C           60.95615663529741        7.34813104912710       -2.03607121944236
N           60.99609263968234        8.68193768150460       -2.40169074122964
C           61.20991317681953        6.97206275247287       -0.71435389162169
C           61.21807841188238        5.63400917792944       -0.36274045581742
C           62.15896158833208        2.64192027675836       -0.48719198250274
C           63.40620178787615        3.34200936596073       -0.42328423923756
C           64.36569768295668        2.41226366226270       -0.19730089969951
N           62.35037205617274        1.29912305715003       -0.25242145592665
C           63.70132685720219        1.15037933890971       -0.12394222672641
C           64.37892331723098       -0.07149501604738       -0.05749233041575
C           63.69891848800815       -1.28850012014096        0.05435723108066
C           64.35326443451694       -2.55663648499793        0.09281487445392
C           63.40167277835147       -3.47372105429945        0.39667915329621
C           62.17296836209055       -2.75676989754579        0.55126073431753
N           62.35829950572039       -1.42223013786573        0.27667018283361
C           60.99344852293262       -3.31968333427552        1.02292723548799
C           61.00370618381474       -4.72462586074460        1.47990003707244
C           60.13991509114383       -5.66761053695839        0.91560265793918
C           60.15456637689993       -6.98474318702832        1.33695231214070
C           61.02697395470197       -7.38726800576193        2.35210995523318
N           61.07091149859071       -8.71056506763487        2.74969356955653
C           61.89640958189441       -6.45138039770114        2.91955192647906
C           61.88417811349082       -5.13917067868649        2.48351048998397
C           59.80605547301991       -2.59972508933981        1.06609158655567
C           58.57090955391809       -3.11466453127360        1.57339968091980
C           57.61080781446839       -2.21279447650774        1.25181787694516
C           58.26751999427809       -1.14399517151880        0.57044695002772
N           59.61571656024937       -1.35380228923537        0.51442173466878
H           56.54437372234564        2.13792993195887       -1.43850576183717
H           58.42831816049207        4.00581295718601       -1.92052739784152
H           60.54708277242231        4.26485072755063       -3.38806397791141
H           60.53911432488422        6.64635344867067       -4.02723600185823
H           60.49882634073839        8.90785200769603       -3.24822132208199
H           60.84165955778624        9.33558210268047       -1.65082270398970
H           61.39712518425797        7.73353754568561        0.03481953108691
H           61.39961235534342        5.34992605424790        0.66798170248081
H           63.52639494007214        4.40357310008037       -0.56485911940937
H           65.43081345868963        2.55060515482398       -0.10401172214274
H           65.40550524786313       -2.70931646650615       -0.08566679195627
H           63.51211396735342       -4.54058538634687        0.50269595770897
H           59.46858808591620       -5.36681892324536        0.11878308723615
H           59.48935345085604       -7.71009713352247        0.88141887823697
H           61.46052660883918       -8.87183811490011        3.66444738811999
H           60.23891768869976       -9.24485687467269        2.55771778199128
H           62.57773080657289       -6.75835776652337        3.70550467367003
H           62.54882758456246       -4.41507658910740        2.94180256492956
H           58.46097107089588       -4.04593744134822        2.10472286094962
H           56.55188311929217       -2.25443371176742        1.45013691327487
Co          74.37213365326978       -0.02320034175616       -0.03204280365489
C           70.97399852286578       -0.04689633448287       -0.08362724974156
C           71.65310364851666        1.04395777083932       -0.63476804280802
C           70.98573600741986        2.16115249532926       -1.22305569323766
C           71.93451643752900        3.10027868035085       -1.45424245459339
C           73.18041142995021        2.54547420043363       -1.01904556269802
N           72.99811740198285        1.26396110900353       -0.55104966004264
C           74.36135767630532        3.26878972085075       -0.92893671936352
C           74.35739372662270        4.70062997340998       -1.30909414643179
C           74.08837285190896        5.08758044420262       -2.62372144521166
C           74.08838322354066        6.42384445576701       -2.98254082850188
C           74.35536509889904        7.40678645511698       -2.02590714125356
N           74.30731399001245        8.74620716073754       -2.36971998376589
C           74.61337061071966        7.02713635529306       -0.70608534294832
C           74.62181262815878        5.68814430189870       -0.35768570708476
C           75.55111319766154        2.69025116362011       -0.50628536604243
C           76.80003640145229        3.38803795732047       -0.45652159010958
C           77.75939091478300        2.45762508071891       -0.23286583838010
N           75.74091175119931        1.34813103241644       -0.27174107764849
C           77.09327289658381        1.19760596875896       -0.14730435532070
C           77.76986951363497       -0.02214930691539       -0.06504465513832
C           77.09206333230205       -1.23726138922310        0.06092469318577
C           77.75102255823542       -2.50211444237645        0.12407735634513
C           76.79960616940728       -3.41908306077957        0.42767784229912
C           75.56600445342367       -2.70560666439086        0.55606657151344
N           75.74804763479189       -1.37404423695597        0.26841609368592
C           74.38101388327561       -3.27550852236289        1.00667972539949
C           74.39235850692998       -4.67928106082733        1.46921644103590
C           73.55475095003879       -5.63302216866889        0.88417667170900
C           73.56790245363443       -6.94763351716228        1.31362075033827
C           74.42100618589249       -7.33898675054344        2.34925044921583
N           74.40050304880519       -8.64058143513232        2.81556415522836
C           75.25290707119983       -6.38878406050725        2.94802755349172
C           75.24257152922318       -5.07903831346487        2.50409686260170
C           73.18859724520763       -2.56566975414568        1.02454327041983
C           71.94712599507626       -3.09383060398670        1.50284609183203
C           70.98746796561146       -2.19643151867482        1.16975525327840
C           71.65035833905847       -1.11623087075809        0.51212459422553
N           72.99979350263411       -1.31730562167681        0.47592061834347
H           69.92464683252327        2.21399002947742       -1.40638709473426
H           71.80724291151616        4.08977404708931       -1.86171305834013
H           73.89825111687726        4.32931226686551       -3.37534157891547
H           73.88492930048955        6.71265305609664       -4.00790813836596
H           74.44484879866803        8.94111984551440       -3.34849667787045
H           74.81453000668593        9.36312305746454       -1.75563970207123
H           74.80793347325427        7.78644888539821        0.04339678983739
H           74.81514879944534        5.40120872722930        0.67009972686566
H           76.92095942297243        4.44889188498737       -0.60303723650788
H           78.82539574071043        2.59415423336518       -0.14734776421603
H           78.80606588253276       -2.65239404819789       -0.03914550485367
H           76.91282311756927       -4.48393809380284        0.55012953631625
H           72.90447466293043       -5.34222723546388        0.06644902295917
H           72.91947992606210       -7.68036619176609        0.84580364473630
H           75.22974398080930       -8.93343705900409        3.30676914431697
H           74.04654154640568       -9.32365803243834        2.16533094691702
H           75.90677606883658       -6.68346427638603        3.76153282866160
H           75.88412446201349       -4.34566054321850        2.98022348084664
H           71.83359099555102       -4.02998568618796        2.02461192387162
H           69.92533434729783       -2.24655231930337        1.34778379871813
