190
 energy: -332.019055257235 gnorm: 0.000229425241 xtb: 6.5.1 (b24c23e)
C           29.11744850567806       -0.08395048796604       -0.09185344894998
C           29.73550378020932       -1.29314177412080       -0.38267058754040
C           29.09287536249836       -2.51809084970664       -0.71792851651926
C           30.06054519550877       -3.46472380204983       -0.90251386196502
C           31.32579450905885       -2.85072500993226       -0.67567370863728
N           31.07936710137619       -1.54058150026805       -0.37947050359000
C           32.59268905408844       -3.44104020359726       -0.75236029255033
C           32.63570782950507       -4.89096753456390       -1.05146991763410
C           33.30390412291775       -5.36002663459170       -2.18708150241249
C           33.34128728471088       -6.71227367573885       -2.46652996276091
C           32.71541746320322       -7.62886545107649       -1.61497431416490
C           32.77200823827019       -9.06716815270002       -1.93314294082076
O           33.33128575836869       -9.51723769705011       -2.90024219382371
C           32.04911712390375       -7.16228573954889       -0.47925025951567
C           32.00768136726207       -5.80737363688454       -0.20282884556169
C           33.80331315183128       -2.76637084481801       -0.56903453131625
C           35.10381057648296       -3.41275969650653       -0.58508581293997
C           36.01651544508530       -2.43926768705998       -0.38851796237182
N           33.94657087765346       -1.43334746350668       -0.33900622346610
C           35.27237587422119       -1.20311061671081       -0.24100286366027
C           35.89873514134703        0.04345964612013       -0.04847065646256
C           35.25547938806065        1.27692335694224        0.15999432511913
C           35.89121607176649        2.53343295578070        0.34527867504902
C           34.91935521041774        3.46987605389331        0.56361615358658
C           33.65893081009805        2.81095720472608        0.52490154949790
N           33.91319682097865        1.49108213898838        0.26453819241951
C           32.39311245791232        3.38474858965765        0.69033017544840
C           32.35452874638921        4.82757589164262        1.01994766069878
C           32.97925496678962        5.30458990821915        2.17704695813402
C           32.94250189549187        6.65014464319909        2.48683495064270
C           32.28499810560501        7.55269785906702        1.64419565945462
C           32.26457206070806        8.98446719217146        1.99425617050413
O           32.79147709907198        9.44059421623017        2.97668050352756
C           31.66229308959912        7.07840155407263        0.48703029088654
C           31.69516991519460        5.72991606949797        0.18001640664146
C           31.18089663283662        2.69606166538210        0.56881824315989
C           29.87223800218928        3.29203565514889        0.79104100674662
C           28.96649608884484        2.31992979183251        0.56357043094179
C           29.72075403535253        1.12740240839170        0.21892877791396
N           31.05092371866894        1.38854657783355        0.24362640847521
H           28.03229998889431       -0.09815589834235       -0.10611921906514
H           28.02581593324144       -2.64380065968544       -0.80876051388856
H           29.91673961080761       -4.49601066387894       -1.18115766591952
H           31.79971556150436       -0.85287682244956       -0.18612826501967
H           33.77827917061276       -4.65141227634211       -2.85647853579314
H           33.85307715165667       -7.08305959063669       -3.34813051309385
H           32.24947804455164       -9.71722499226967       -1.19921485257821
H           31.56460443398197       -7.86652275498732        0.18928184148526
H           31.50308299069198       -5.45070217842917        0.68814217269757
H           35.27323831990888       -4.46937994061889       -0.71410170550711
H           37.09000000973752       -2.52426209834792       -0.33492498632434
H           36.95715063902869        2.69087337391126        0.31110359404640
H           35.05958600582665        4.52596892206342        0.72640249058317
H           33.19570971688356        0.78054603735528        0.16465767608635
H           33.47688772759943        4.60620456951836        2.84049463587007
H           33.41926681943753        7.02613004130866        3.38570797033099
H           31.71648868389477        9.62342197202078        1.26937898614531
H           31.15365318624065        7.77220908556734       -0.17442435891808
H           31.22437520441841        5.36779867206638       -0.72694366994808
H           29.69567303274960        4.31180474557952        1.09294067852732
H           27.89083579861698        2.37088810466561        0.62600502258190
C           62.74847365115615        0.09560895669162       -0.04413570714587
C           62.13032909957251        1.26456026385629        0.38028089747431
C           62.77257801263562        2.47645041690219        0.76075593580329
C           61.80509632539260        3.36922378565628        1.12604432616820
C           60.54036976791233        2.72821577398739        0.98866589182562
N           60.78695268466050        1.46690048253997        0.52698097328496
C           59.27360460854000        3.26792834996618        1.23969551856518
C           59.23180649265741        4.65089593970156        1.76899809680657
C           58.57617966937060        5.66274552928404        1.06046391488039
C           58.53759036222505        6.95087799268161        1.55796550288841
C           59.14969569965821        7.25743602528388        2.77793419884232
C           59.09045368481205        8.63835688711617        3.29044694310643
O           58.54133226606478        9.54297302906436        2.71532872059944
C           59.80483281150863        6.24775473992981        3.48704899825999
C           59.84769941960515        4.95914408729608        2.98553121922016
C           58.06256972990358        2.60172707076080        1.03091393772170
C           56.76139009354699        3.16393302067702        1.34769196383788
C           55.84898016206653        2.23182553774048        1.00466952916718
N           57.91973719339938        1.34471208657653        0.53096239143232
C           56.59393478764129        1.09697285173973        0.49368384234442
C           55.96809980550806       -0.08005800729559        0.04013097394105
C           56.60999492692369       -1.24716422587126       -0.41075577998129
C           55.97223043203477       -2.42478877157777       -0.88443483256035
C           56.94439877040584       -3.32409336541611       -1.22317445021701
C           58.20764038750747       -2.72497865725619       -0.95843836027531
N           57.95360829625039       -1.46901991446635       -0.47588374534393
C           59.47451446250656       -3.27730174523559       -1.17771117927045
C           59.51705321709624       -4.66556996090712       -1.69117741474484
C           58.94668914216297       -5.71154688675848       -0.95859897096685
C           58.98766857780829       -7.00538590147360       -1.44086401124168
C           59.59463920216505       -7.28390121653269       -2.67006475123138
C           59.62073779223014       -8.67197683841590       -3.16549735269933
O           59.14137715748078       -9.60377538270752       -2.57149442739126
C           60.16327326871130       -6.23994726241806       -3.40394728209221
C           60.12669385458275       -4.94540372329500       -2.91783389276519
C           60.68655437132632       -2.61476190453894       -0.95242479459848
C           61.99730412690844       -3.22027833670878       -1.13284973033100
C           62.90234413976476       -2.27228385683719       -0.81787317417195
C           62.14613188197580       -1.09329854560575       -0.43320057137598
N           60.81546239268681       -1.33964381427121       -0.51731874755374
H           63.83325037965591        0.12220146349525       -0.06698439187124
H           63.83924220872237        2.63362310254077        0.74647282439588
H           61.94826146121152        4.38658565724356        1.45220024084192
H           60.06687649851904        0.78280009366307        0.32017953857421
H           58.11208355284364        5.43154651738969        0.10841629956802
H           58.03492837677848        7.74202303098542        1.01203321681424
H           59.60033883840211        8.78429598261371        4.26668029765782
H           60.27917044823788        6.47571759787154        4.43609575997500
H           60.34369904144826        4.17485199057713        3.54638387940829
H           56.59099661842045        4.13385374406383        1.78581906614078
H           54.77523380471857        2.27810993945379        1.09034901213694
H           54.90463450735356       -2.55472543400637       -0.95879154543145
H           56.80226617879099       -4.31117187045864       -1.63176167545867
H           58.67233400375905       -0.80053940753659       -0.21853183298861
H           58.48850413407695       -5.50221511632489        0.00148321193764
H           58.55309124215403       -7.82264532642703       -0.87528803238589
H           60.12526374510795       -8.79610897666144       -4.14745400222456
H           60.63258312234137       -6.44637289069101       -4.36037870960304
H           60.55564437092256       -4.13541338914988       -3.49688697384167
H           62.17574008966456       -4.23710970713996       -1.44346630772053
H           63.97904353764967       -2.33714971943942       -0.82537518522520
C           38.52819642563291        0.08998423776243       -0.06378195053994
C           37.30700505831714        0.06982114673458       -0.05631796553703
C           39.87928794277097        0.09713358934647       -0.06623945606989
C           41.10073628843208        0.09190129321671       -0.06329670026462
C           51.98627885092102       -0.10546416533461        0.00722187603409
C           50.76522994838259       -0.08921271533671       -0.00634512919491
C           53.33787706825932       -0.10934566116032        0.02051537562054
C           54.55894410855456       -0.10214636124768        0.03337330521084
C           42.50839802658653        0.07334211431244       -0.05423732111179
C           43.15378182240085        1.02145097869172       -0.86880327003893
C           42.52419023165375        1.96748298597263       -1.71923828980702
C           43.50357409134281        2.69792904997926       -2.33404524781078
C           44.76111267609226        2.22525929644977       -1.86772461138554
N           44.49877269924956        1.20718432357427       -0.99123064560377
C           46.03141886698067        2.68140620621755       -2.23972621845969
C           46.07432886339070        3.81218391883273       -3.19717241774133
C           46.68376461650226        3.65471207516937       -4.44591143581447
C           46.72019100395702        4.70521780051427       -5.34215897958635
C           46.15415976869251        5.94015927778004       -5.00848571803987
C           46.20814254567343        7.04651715937930       -5.98161891223573
O           46.70994163842877        6.95391272779734       -7.07250539970071
C           45.54859758782589        6.10004923456224       -3.75987641390655
C           45.50609868589081        5.04524210759764       -2.86544039798617
C           47.24534367716820        2.15883325303463       -1.78745566639922
C           48.54345607312137        2.70650862185665       -2.14102719594967
C           49.46300979314577        1.94354204610465       -1.51559525674179
N           47.39693588369679        1.09855161107427       -0.94925570840773
C           48.72575095193489        0.93671006363639       -0.77708560968499
C           49.35693593685596       -0.06546247637208       -0.01664750010952
C           48.71035823206685       -1.05451363295647        0.74657076051976
C           49.33847191173864       -2.08064196665458        1.49980537340838
C           48.35932896342379       -2.80746304157856        2.11901294104693
C           47.10367841736510       -2.23969314970219        1.76788168572324
N           47.36607327454584       -1.19201331230081        0.92736434561276
C           45.83460270409703       -2.66936174286674        2.17459764662191
C           45.79650883781764       -3.80057110007845        3.13140466469782
C           45.15822312764315       -4.99628173657198        2.79018038573999
C           45.12129884162710       -6.05123545920332        3.68449307827854
C           45.71861358460863       -5.92986346230989        4.94145707535220
C           45.68984259087689       -7.03710143597085        5.91457024525333
O           46.19136978283186       -6.97954145165688        7.00804298291091
C           46.35643538179907       -4.73298804389591        5.28396446582320
C           46.39765898829327       -3.68196641929286        4.38846815527740
C           44.62057212725355       -2.11684710741506        1.76038041631667
C           43.32362663895618       -2.55361004520059        2.24692556168359
C           42.40410122911190       -1.79227116628927        1.61933474418244
C           43.14074990850823       -0.88398274017099        0.76210196686969
N           44.46846601893051       -1.09532817688942        0.87480882219540
H           41.45780137157612        2.06432398990051       -1.84401442035525
H           43.36898439908668        3.48769077870067       -3.05491147214074
H           45.20931818203377        0.66395080191867       -0.51238041506845
H           47.11314038849327        2.69536356225590       -4.71152016406736
H           47.18523037623392        4.58909331324793       -6.31522300644843
H           45.74132178258978        7.98975694935014       -5.62601000125812
H           45.11136489196369        7.05613248023261       -3.49095803490032
H           45.04715249260777        5.17704279290234       -1.89200426785700
H           48.70626781709810        3.56688751830419       -2.76950535448521
H           50.53716990803485        2.03497670989695       -1.53094012578161
H           50.40371708291866       -2.23744778470109        1.55193882485809
H           48.49238743987141       -3.66700002946443        2.75533339665671
H           46.65664598857818       -0.60427756259732        0.50245799720323
H           44.70491744266523       -5.09802147679420        1.81066821671831
H           44.62808376438880       -6.97771894041733        3.40906464268058
H           45.16051598685622       -7.94560997053038        5.55626117944500
H           46.81396308682654       -4.64595322814670        6.26359959468173
H           46.88005178153582       -2.75058924470553        4.66298267275696
H           43.16064201447278       -3.32726483167597        2.97948973358154
H           41.33066230950625       -1.81549273795429        1.71735184319477
