189
 energy: -326.866467680367 gnorm: 0.000599779457 xtb: 6.5.1 (b24c23e)
Ni          22.75844027240542        0.25315444824864        0.13490326736921
C           19.36919134046641        0.14082444818119        0.07818541113524
C           20.05577594345601       -1.05211449515763        0.17192917307454
C           19.41648398340775       -2.32716250706602        0.28359116505600
C           20.39933246361267       -3.25790109704089        0.25549988492299
C           21.63800428563812       -2.55087183280076        0.11171643171413
N           21.41905595185512       -1.19540812747238        0.10271068979122
C           22.87086821362516       -3.16902347927928       -0.05446505538617
C           22.92888209094512       -4.64792529577437       -0.13665777726960
C           22.30657702567440       -5.32526058281626       -1.11286718692551
C           22.34368086908054       -6.82862652923170       -1.20429895030558
N           23.41598662811097       -7.38377696111492       -0.37407579403206
C           23.88207375809225       -6.69569608340346        0.71568565944205
C           23.70394584276463       -5.37081921172173        0.86172021071005
C           24.05755045396420       -2.45351388624897       -0.14720907258861
C           25.33421184226908       -3.05957015118290       -0.37346307464952
C           26.25554637504149       -2.06829690213272       -0.31080640755099
N           24.19305517268089       -1.09244431774134        0.01086594999772
C           25.53941885252562       -0.85976320082511       -0.05409775787058
C           26.16728817047566        0.36698853926601        0.17949332374026
C           25.45384250977266        1.54902314110181        0.39665161159362
C           26.08099355559526        2.80129042805659        0.67559024945745
C           25.09385474801964        3.72817039317727        0.72102150611931
C           23.86661353508752        3.03947771386448        0.46035712039440
N           24.09704629885071        1.69152002704489        0.29879970243359
C           22.63735869259659        3.67404722651012        0.33948313051900
C           22.59010079662948        5.15257922080748        0.43674827535847
C           21.89814728279031        5.77259256728633        1.40405883890452
C           21.82417818512730        7.27356231970392        1.51020142814775
N           22.87202788142462        7.91381034444903        0.71042902232610
C           23.41102290106468        7.27276616641706       -0.37463528653295
C           23.33365891021944        5.94004041103894       -0.53631028293174
C           21.45449567157675        2.97628954963566        0.13028957623395
C           20.17724739039540        3.60098317350792       -0.05226147924994
C           19.25990867438871        2.60752391412901       -0.11980689260437
C           19.97807148968144        1.37680059709325        0.00865417384788
N           21.32576875220838        1.60941654754054        0.12538092719201
H           18.28608636041676        0.10493979261896        0.05982238630040
H           18.35133350136022       -2.47107592119405        0.37273776516600
H           20.30722538385107       -4.32941777096959        0.32729027778399
H           21.73089587117263       -4.82126410221487       -1.88040333239114
H           22.52268271564930       -7.14012685601947       -2.24224756461058
H           21.36895981517770       -7.25377663728963       -0.89945740386014
H           23.38667902778760       -8.38942886886111       -0.28833685612941
H           24.47657391321445       -7.28566866030695        1.40591953866128
H           24.12253537436163       -4.83455468562745        1.70141906349727
H           25.49401239688294       -4.10964025780410       -0.55608368313879
H           27.32571941506647       -2.13387959162587       -0.42347615810946
H           27.14145242469391        2.93730864149340        0.81439403770517
H           25.17816582820509        4.78548277529198        0.91228397590819
H           21.34165284371518        5.21993846732568        2.15200677885584
H           21.95629494803847        7.58612593837862        2.55483590741608
H           20.82832588436932        7.63022040317823        1.18633447320896
H           22.76950424042831        8.91526261902995        0.63122217067376
H           23.97582622293505        7.91180179428871       -1.04585975833100
H           23.80871240963804        5.44445623162614       -1.37093685971108
H           20.01700341153720        4.66460720754402       -0.12179446562303
H           18.19126546815252        2.68144178178004       -0.24525983979077
Ni          59.81920415355693        0.15754377028087        0.13199787011369
C           63.20522076948531        0.32097536318658        0.11547177960740
C           62.50318086386667        1.45818292943776        0.45831671181435
C           63.12453963708239        2.68760557702256        0.84465449165641
C           62.12933637351078        3.59097295036954        1.00828080872211
C           60.90125881189724        2.91665190960586        0.70515261256961
N           61.13850879826519        1.59654115908660        0.41105178083500
C           59.66228908136549        3.54287145276469        0.65294222302538
C           59.58442750551691        5.00554716192164        0.88019571042587
C           60.21340452039978        5.87863962107380        0.07942211427845
C           60.15682508980226        7.36735907382765        0.30382063161413
N           59.06209927775637        7.72567220286771        1.20970743734121
C           58.58753178284824        6.81994322793611        2.12244743480651
C           58.78198002212528        5.49576712129007        1.99194508275579
C           58.48752466700551        2.84951671122458        0.39188251209079
C           57.20619210859019        3.47495646173405        0.26871451646011
C           56.29820441779604        2.48158227271541        0.11250329986978
N           58.36892225141920        1.48337157986495        0.26799529019067
C           57.02710678919511        1.25369069170023        0.13484951545951
C           56.41368025837492       -0.00249042256595        0.12109724608417
C           57.14104893204610       -1.19565140841349        0.11550326283552
C           56.52972352866205       -2.48590428295959        0.14290186612624
C           57.52845910303773       -3.39150691571260        0.00782845951626
C           58.74698593407617       -2.65002772307554       -0.11072196520588
N           58.49972152220720       -1.29976957292318       -0.00324853349119
C           59.98347024092548       -3.23164165402538       -0.35902301306289
C           60.04856489610079       -4.69783418209999       -0.56728422117988
C           60.75704435140494       -5.49483797908773        0.24630908628385
C           60.84953315259138       -6.98433078841464        0.03967504767286
N           59.80119770482717       -7.45979863170716       -0.86715011232060
C           59.24368706472836       -6.61616192562531       -1.79227566919588
C           59.30437875570775       -5.27779892394085       -1.67622895799365
C           61.15664867761620       -2.49021011325036       -0.42391897538721
C           62.44121673320168       -3.04660787969680       -0.73259950725544
C           63.34550785701450       -2.04841331455780       -0.59468746061777
C           62.61226311408865       -0.88036555997019       -0.21391286221933
N           61.26794600017134       -1.14991533706831       -0.14794408094329
H           64.28777266826860        0.37355860133910        0.10809920600540
H           64.18711719815281        2.82213204411892        0.97116602098753
H           62.20658355139827        4.62335599030026        1.30831075121671
H           60.80898468619423        5.55245670215022       -0.76523058599698
H           59.99216371425990        7.88761680907625       -0.64938903189542
H           61.11990047109785        7.72881022266777        0.71080437663646
H           59.07696408723754        8.69107626736237        1.50538379145220
H           57.97296929322732        7.24631915860941        2.90887381096921
H           58.35657645706036        4.79160522002316        2.69272780415790
H           57.03429807071601        4.53849029641280        0.29915199987507
H           55.22920022173277        2.55749105193978       -0.00462547872771
H           55.47092461684891       -2.65905375690037        0.24957619252351
H           57.45749697185357       -4.46676953213418       -0.01223350322090
H           61.31420158738050       -5.10112448346021        1.08838527255312
H           60.73177678655588       -7.50762712750084        0.99817876474194
H           61.84616456162797       -7.25294742757356       -0.35841898413868
H           59.91300335551450       -8.42240396330836       -1.15081965019796
H           58.67923959076676       -7.11037660711896       -2.57655152300062
H           58.81528918722205       -4.62731390605702       -2.38724766455598
H           62.61506535534151       -4.07084427810269       -1.01984768301422
H           64.41457727750121       -2.08076371819809       -0.73342009147922
C           27.57124641653397        0.41058770887956        0.20089610531648
C           28.79479910428157        0.43730716275304        0.22319665744117
C           30.13752504684195        0.46691962879494        0.25146351985329
C           31.36732723010491        0.48968683965055        0.28056985051564
C           32.70510602150523        0.51597377142346        0.31645862053897
C           33.93461205324334        0.53918751684410        0.35567113233057
C           35.27626580932782        0.57430510443285        0.40732492503284
C           36.49887842409506        0.61183338574283        0.45965950248636
C           46.09292345583061        0.24162606293608        0.38184293457484
C           47.31027610592325        0.12807828966277        0.31812097153266
C           48.64849908422243        0.03076177050729        0.25907320020728
C           49.87623401305675       -0.03472763312141        0.21329036242818
C           51.21341857521989       -0.07876048143412        0.17457219190339
C           52.44322775423297       -0.09630668752795        0.14804720325920
C           53.78640090262156       -0.08684509556457        0.13031342208757
C           55.01017522330592       -0.06147903510108        0.12242628808857
Ni          41.30709520429506        0.69056622340335        0.61238298985662
C           37.90049810199421        0.65740834256594        0.52405832836830
C           38.58366413544683        1.54732292429860       -0.31227348161865
C           37.92939732617832        2.49899836590136       -1.15113069776997
C           38.90280758659553        3.14951509808374       -1.83465601657192
C           40.14726464072834        2.56581505847130       -1.43722015061971
N           39.94006190452956        1.61347941288376       -0.46331980489032
C           41.36582215193740        2.84253863212431       -2.04169594819430
C           41.41565027500619        3.81138871624664       -3.16190318881982
C           40.74000038768369        3.61036752016763       -4.30330013801466
C           40.82842102967355        4.55850347562617       -5.47000193350892
N           41.37375109966755        5.85453436289920       -5.05799539147313
C           42.18980145369029        5.95228102387771       -3.96143721952213
C           42.23003357231187        5.00750717559951       -3.00526128993522
C           42.54659847632459        2.21277690155026       -1.66739541356129
C           43.78160172872005        2.35100673738180       -2.37576925945846
C           44.70498828207957        1.62439876379591       -1.69972346248252
N           42.70724849520539        1.38829885577883       -0.57821048292310
C           44.03483823567898        1.05883248192359       -0.57267363739663
C           44.69902442852023        0.38911919086676        0.45955785052910
C           44.03514832630277       -0.07428721187228        1.60065627013747
C           44.71015744331642       -0.59606359073973        2.74489487508493
C           43.75021904411315       -0.96790675660566        3.62710511476129
C           42.49000166896531       -0.70713975858142        3.00142895583029
N           42.67998415775185       -0.11124261701652        1.77386751506120
C           41.26489742380881       -1.11114990555273        3.51582317077139
C           41.22596132543242       -1.85331500560386        4.79777660458389
C           41.84944511436564       -3.03061846319051        4.95473161862525
C           41.82454629945334       -3.79147163087187        6.25457412185177
N           40.75868014465752       -3.30357487411214        7.13397614210672
C           40.28835712229934       -2.02175874075367        7.01599499805583
C           40.45697631972559       -1.29177794841471        5.89928428733623
C           40.06507984610175       -0.88691494776976        2.85107071425865
C           38.81022443419876       -1.43384751972036        3.26689590656788
C           37.87583919218635       -0.97836871752713        2.39718046974630
C           38.55933204074704       -0.14029764731127        1.46442382882206
N           39.90290005623464       -0.11822641629663        1.72175235132414
H           36.86244175735986        2.64847410030041       -1.19141924937699
H           38.79677158509497        3.94815709073771       -2.55044472662444
H           40.15436711051240        2.71376273192232       -4.46977734878953
H           41.45250181633773        4.12078229576215       -6.27182059098137
H           39.82980430535792        4.72968097203478       -5.89406344722898
H           41.58445567906385        6.47249722911297       -5.82830980937539
H           42.73499492538635        6.88740856442213       -3.88286514515139
H           42.82328686178694        5.13490672061531       -2.11098462559347
H           43.91191214372928        2.92387480686880       -3.27960399208796
H           45.75087167538135        1.48758592429410       -1.92268402601168
H           45.78160712891708       -0.65145494511600        2.85157050571650
H           43.87627535624794       -1.38595157055999        4.61232992934828
H           42.41491250752968       -3.48931959491894        4.15207174450417
H           42.80339051941770       -3.71002113412168        6.76341673842154
H           41.64577937060858       -4.85845764142949        6.06476679396761
H           40.79712409931879       -3.68102411787573        8.06970040611901
H           39.69850038243668       -1.67464025726307        7.85827481026314
H           40.03323180375992       -0.30233874673012        5.80251279265285
H           38.67402231598204       -2.08886626241515        4.11195214864682
H           36.81494223258803       -1.16987098927497        2.38556121351268
