126
 energy: -206.487822366418 gnorm: 0.000402216693 xtb: 6.5.1 (b24c23e)
C            8.01659661204766        0.05536690989407        0.08703191648033
C            8.62469913112688        1.23748791478461        0.48943536091191
C            7.97169456328127        2.42460624997144        0.92493126502443
C            8.93268569186692        3.35309947087584        1.21194044824878
C           10.20397435848917        2.76586190220117        0.95427952602301
N            9.96724879267961        1.48840936733589        0.53069709993346
C           11.46572662420695        3.34875846055060        1.11664172591359
C           11.49958304808539        4.76653742573509        1.55251404271566
C           10.95813333288978        5.74332753177886        0.80928187789427
C           10.97308631258631        7.18788934209667        1.23743988953165
N           11.95632519099242        7.41377344641660        2.29994295338280
C           12.32712566748697        6.39150878781689        3.13437117696357
C           12.15886882583280        5.09793683475047        2.80755709039192
C           12.68066824781286        2.69563097176298        0.89744752194050
C           13.97815037328840        3.33093601310338        1.03881472031822
C           14.89921182419899        2.39048847770034        0.74380576955425
N           12.83542205521727        1.39995776405875        0.50667291854624
C           14.16280437708423        1.18598046011526        0.41198141666445
C           14.80053055210765       -0.01724504609316        0.04596528346330
C           14.16582094156433       -1.21317788076414       -0.34164966499472
C           14.81181728153726       -2.42321175811210       -0.70813698813549
C           13.84585453703445       -3.33497675757521       -1.03369827580033
C           12.57935157731756       -2.70689329469147       -0.87998242419829
N           12.82494192626608       -1.42749381847823       -0.45481679995913
C           11.31878325219300       -3.27850815034126       -1.08565860730751
C           11.29640839134946       -4.67957197558869       -1.57020310283944
C           10.72544907945701       -5.66397771132048       -0.85993176004417
C           10.68065632656421       -7.08961222967764       -1.34487390854776
N           11.64650156543557       -7.31266514245005       -2.42423511889574
C           12.05061224199727       -6.27298241665233       -3.22109767508001
C           11.93645993261030       -4.98797154720786       -2.84175412130900
C           10.10196448027789       -2.62405388968372       -0.86745406201982
C            8.79663474618970       -3.21099934359347       -1.12624264290454
C            7.88331020225630       -2.27874094807173       -0.78672121080013
C            8.62931191708575       -1.11728993331301       -0.33639220384633
N            9.96123615838515       -1.35847547364008       -0.40493500713356
H            6.93117481419208        0.05978213252239        0.10059661486982
H            6.90250898204905        2.53885237914900        1.00788623371289
H            8.78117722334087        4.35523624731812        1.57902942111817
H           10.69320549148031        0.82379491449101        0.28466434953749
H           10.47128920015608        5.53814092645258       -0.13710258970591
H            9.96686905560874        7.49618336704758        1.57894808772582
H           11.23828066762914        7.83144003409193        0.38779184779332
H           11.90557219228676        8.33302206862414        2.71455948428252
H           12.84199393123588        6.70488313021084        4.03694733156432
H           12.50260505115994        4.30339125711026        3.45443464865402
H           14.13977768969450        4.35927928716632        1.31884231352932
H           15.97376094207676        2.47994356771193        0.73581814145649
H           15.88005706876961       -2.56857672482414       -0.71561387117402
H           13.99357500468892       -4.35552344346813       -1.34730341707494
H           12.10237024328126       -0.74623394056142       -0.24653736234477
H           10.25277085235338       -5.47742551893020        0.09725464321847
H            9.66072751331365       -7.34377461693464       -1.68967088356145
H           10.92593685175636       -7.77641736670862       -0.52363668529488
H           11.55021143060394       -8.20986973902653       -2.87750095355199
H           12.54542138202047       -6.56987620721074       -4.14041211779651
H           12.30466764683671       -4.18287736765758       -3.46176968462827
H            8.62675109226048       -4.19807479775626       -1.52522889786288
H            6.80712601812198       -2.33779559550730       -0.83638691985564
C           33.32710257904038       -0.09703992455555        0.04832306538380
C           32.71904839374420       -1.31338282418031       -0.23431501505679
C           33.37204457000442       -2.55166325537708       -0.49046214306170
C           32.41109145873657       -3.49152726439433       -0.73783362338942
C           31.13984147070500       -2.85651472039376       -0.64772686926220
N           31.37653997689397       -1.54799088473446       -0.33299699825586
C           29.87814902553305       -3.43730629293350       -0.81789545440290
C           29.84455888361979       -4.87159148225786       -1.19597620531773
C           30.38566330403592       -5.30875170979107       -2.34304429483718
C           30.37114924120722       -6.76169925415079       -2.74186280050424
N           29.38914981468199       -7.51502908657409       -1.95771516662539
C           29.01862077093291       -7.08714720363172       -0.70936039631888
C           29.18616163348765       -5.81573809399811       -0.30451207606133
C           28.66312453879134       -2.76700844760492       -0.65949157070779
C           27.36574158006935       -3.38168740710856       -0.87398012317798
C           26.44450877049923       -2.42726973709922       -0.62848819878099
N           28.50815725870594       -1.46004426242456       -0.30838824876099
C           27.18072951963919       -1.22860915967400       -0.27577992607508
C           26.54282277346213       -0.01310524747159        0.04687140372489
C           27.17751570429378        1.20774122424896        0.34697833972644
C           26.53145762928531        2.42953163621565        0.67195999630402
C           27.49742181788619        3.37605410820068        0.87550952308196
C           28.76395332104476        2.76095169059625        0.67642363155535
N           28.51839741925317        1.44938931923409        0.36424204747437
C           30.02450812009286        3.35495508220893        0.80386873041634
C           30.04666716055478        4.80121579832339        1.12969698840734
C           30.61525429458169        5.26394049459647        2.25312801917120
C           30.65973223693392        6.73130948667663        2.59145254838218
N           29.69515832134131        7.48921018774095        1.78970506803951
C           29.29377904211255        7.02517597685198        0.56380605231917
C           29.40877554320164        5.73305864181334        0.20971592199769
C           31.24139064066617        2.68347583559916        0.64636017007921
C           32.54670333465484        3.31842791988317        0.73773566451700
C           33.46015619419141        2.34699131992019        0.53657661464344
C           32.71425769636257        1.12274259945832        0.30604944389877
N           31.38228952362884        1.36407487372611        0.37287900868676
H           34.41250409815017       -0.10818916427976        0.05897169326829
H           34.44119341718116       -2.69268750143042       -0.47928658023324
H           32.56255608911886       -4.53645582580431       -0.95504581977775
H           30.65064411648831       -0.85343814147415       -0.19181742781525
H           30.87200362699734       -4.63479932591663       -3.03876438376887
H           31.37776681157031       -7.20318542452647       -2.61549806185031
H           30.10502491864705       -6.85996078033832       -3.80296803897172
H           29.44068748543522       -8.51463426963510       -2.09049531834281
H           28.50461732403114       -7.82994478518487       -0.10770734666814
H           28.84263202768251       -5.48236580693011        0.66438298182671
H           27.20425799262534       -4.40318331396582       -1.17811946724388
H           25.36995688538861       -2.49935026143201       -0.68206961691755
H           25.46321441414867        2.55725470709136        0.74157056780892
H           27.34971765588048        4.40887855387582        1.14590495586906
H           29.24084626974878        0.76029672969881        0.18308961909112
H           31.08618053207458        4.60120629810306        2.96966883165072
H           31.67994589998700        7.12880575715258        2.43362998971363
H           30.41283726851532        6.88295781355075        3.65084360579709
H           29.79102208167413        8.49063244790387        1.87726190543748
H           28.80027810929035        7.76170925739547       -0.06236578817768
H           29.04265070355769        5.37515972755277       -0.74213778170259
H           32.71648893508587        4.36755958053687        0.91904355572682
H           34.53637357574455        2.42311721548816        0.52719609431955
C           16.20523061867287       -0.03338935559250        0.05580047301925
C           17.43009274772302       -0.04134881087879        0.06921957300834
C           18.77207430065237       -0.04130322087678        0.08137148618216
C           20.00304260864174       -0.03257965163238        0.08956585276185
C           21.34033213384883       -0.02305299683762        0.09196528414318
C           22.57130310575851       -0.01164693760796        0.08883086031006
C           23.91329043386464       -0.00540174254921        0.07944536607498
C           25.13815676421923       -0.00486771540412        0.06427864350614
