314
 energy: -542.208411944042 gnorm: 0.000478328273 xtb: 6.5.1 (b24c23e)
C           35.46771260520217        0.04331186199285        0.04036098327249
C           36.08767013293200        0.03938892738399        1.28328507207671
C           35.45445836754293        0.00529204576759        2.55795102474947
C           36.43047643025216        0.02689305153448        3.51406892590742
C           37.69148823710233        0.07255224347730        2.85415765703610
N           37.43417329090246        0.08013331170334        1.51204821748566
C           38.95866872813912        0.10247789878729        3.44367492175772
C           40.17135641834418        0.10380622161070        2.75435210971044
C           41.46667997195020        0.10050631272280        3.40938613038210
C           42.39150882637868        0.11025399726316        2.42695795173490
N           40.32998674517425        0.12820973752660        1.40208578109415
C           41.65877354581935        0.12727486617254        1.17518661100397
C           42.29475164835206        0.14648920050218       -0.08300447092793
C           41.64830462495978        0.18023135435703       -1.33281120794770
C           42.27541598227253        0.22197386522531       -2.60680999435258
C           41.29467501350992        0.25993109841323       -3.55862856058050
C           40.03731308353287        0.23988086965986       -2.89362336673909
C           38.77077651285084        0.25913499782041       -3.48324381509071
C           38.73860666779095        0.29395759315800       -4.97588817661415
C           38.98510728582821        1.43839421160432       -5.73970459594218
O           39.24062756997554        2.67893738800727       -5.24354439861124
C           38.78537807220082        3.10975764391116       -3.97319274112897
C           39.00793578307488        1.35645162363851       -7.13724423378001
C           38.77376377575847        0.15249966523170       -7.77009207632545
C           38.50285450031529       -0.99389262705181       -7.03263912948844
C           38.48917155832510       -0.92067535393348       -5.64423105782071
O           38.25888682887337       -1.99110546564022       -4.83713422233876
C           37.97818440882147       -3.25937497623075       -5.39410607616733
C           37.55789542095101        0.18801566524896       -2.79326317486079
C           36.25643628663901        0.17630942661922       -3.44153605898702
C           35.33906194661208        0.11280790049029       -2.45529533563376
C           36.07978214496172        0.09455730606843       -1.20562801278725
N           37.41273409482565        0.14491325544675       -1.44750261106363
N           40.30305999377175        0.19269587153285       -1.54981285428457
C           38.99357695985977        0.05422472998007        4.93686108799290
C           38.75992760126049        1.15206427082286        5.76931312482757
O           38.50226248540116        2.42130515921659        5.35431459697515
C           38.90832233895971        2.92034551894985        4.09258363622515
C           38.75347409627218        0.98673122784797        7.16001587308714
C           38.98951308303283       -0.25324523491817        7.71781410596210
C           39.24361126215949       -1.35578656391815        6.91071494284460
C           39.24164992396053       -1.19965893021209        5.52924420151502
O           39.45593893808287       -2.22083448028156        4.65663629422249
C           39.75989548248268       -3.51648727714634        5.13246673443929
H           34.38313242612971        0.00758761393517        0.05363155025874
H           34.38726969226950       -0.03037749518818        2.70903003802411
H           36.30006279992670        0.01005292360812        4.58407270093369
H           38.14657058798043        0.09070089236922        0.79004746185630
H           41.61886455245801        0.08618269210561        4.47669833417270
H           43.46645401485501        0.10826145954563        2.51285722032508
H           43.34210323493541        0.22318442608892       -2.76336946190199
H           41.42227009575818        0.29486259040572       -4.62832361899965
H           39.44726809662168        2.76630905357197       -3.17062804390592
H           38.79750086653409        4.20234368844039       -3.99972330865928
H           37.76498439440809        2.76537405698971       -3.77522774233795
H           39.21095480063020        2.25795605083367       -7.70126670807703
H           38.79321198002765        0.09861140732674       -8.85271130579254
H           38.31523352296456       -1.92888420358934       -7.54308255018769
H           37.81778993995112       -3.93279389328685       -4.55009706144170
H           37.07257443115412       -3.23483325470316       -6.01226186019305
H           38.81764179131579       -3.62918731889066       -5.99530069007919
H           36.09840228311214        0.20699930349313       -4.50780972719602
H           34.26339115869840        0.08254671784393       -2.53309890320240
H           39.59407901697658        0.15078875533954       -0.82530474257613
H           39.93014150132385        2.61110110127035        3.84911514443417
H           38.87128754296354        4.00978028543570        4.17110829352424
H           38.23059793833391        2.59813147249364        3.29440115982274
H           38.56214539409883        1.85415494717632        7.77891770358938
H           38.98387338877781       -0.37054186005626        8.79557934539593
H           39.43140439724215       -2.32054586272974        7.36229720029699
H           38.93450364719833       -3.93211297020769        5.72321385359603
H           39.91445166895292       -4.13633367354242        4.24732264384156
H           40.67487597261072       -3.51731957109253        5.73705037733806
C           98.09824707367672        0.03173069201769       -0.13589604125541
C           97.47980701945318       -0.09087334562050       -1.37352789771020
C           98.11450374904598       -0.22471110019217       -2.64086274411456
C           97.13897933919678       -0.30206333806630       -3.59461668764673
C           95.87692911199017       -0.22133430141079       -2.94019602079603
N           96.13300618984690       -0.09296424340785       -1.60400602781202
C           94.60976142506503       -0.26768769417192       -3.52859789402653
C           93.39687342128779       -0.23185787709946       -2.84073860281260
C           92.10270495990697       -0.32201817157848       -3.49172171736434
C           91.17681578163753       -0.24184090334822       -2.51360640415286
N           93.23633010434800       -0.08787089861067       -1.49611920774859
C           91.90760672414960       -0.09396040639330       -1.26930279020022
C           91.26938728906681        0.03784388413606       -0.01879272675708
C           91.91349651979134        0.20518678481118        1.22124881460679
C           91.28471290630526        0.36251512783763        2.48528005396525
C           92.26409448602257        0.50564296677209        3.42856045668202
C           93.52223282416189        0.43715034239141        2.76820261216138
C           94.78802672587210        0.52768945751748        3.35271769505293
C           94.81922229349414        0.70295097492182        4.83557033547778
C           94.56601855028238        1.91208081277483        5.48950462321054
O           94.30134050054114        3.09941196322633        4.88098217027450
C           94.74367503926152        3.41101839623283        3.57186424458014
C           94.54594710410588        1.96076416414509        6.88872988684913
C           94.78912368362820        0.82282435457372        7.63081367654551
C           95.06611860855156       -0.38583253700105        7.00317517133713
C           95.07728102145826       -0.44236418754637        5.61400087193705
O           95.31354644283020       -1.58184852957507        4.90967792097900
C           95.60463687353246       -2.79064308703173        5.58160568710607
C           96.00243253035254        0.40622181578747        2.67246066778292
C           97.30308441921987        0.46945541150319        3.31943273247996
C           98.22250552549136        0.32673560149260        2.34342175332267
C           97.48379980798214        0.18559717383266        1.10044918161081
N           96.14996131161992        0.24114314116152        1.33642612048353
N           93.25827256885424        0.25668539633306        1.43541672605737
C           94.57644563973187       -0.44115908418856       -5.01233952824599
C           94.79000675819378        0.58944415018761       -5.93166087210860
O           95.02380038883116        1.89252999717657       -5.61946385257895
C           94.58538252805188        2.48701318861971       -4.41084928838818
C           94.80132575684763        0.31159853706742       -7.30411264377881
C           94.58880258345870       -0.97405897754809       -7.75862993471821
C           94.35373436400722       -2.01147868261333       -6.86419077255044
C           94.35149741053880       -1.74339328314035       -5.49996444177733
O           94.15455698096352       -2.69352370231055       -4.54675672576277
C           93.87226391390351       -4.02852674395894       -4.91509089003775
H           99.18324766326545        0.01093536268436       -0.14597973556382
H           99.18225367677218       -0.25532611729428       -2.78905744104592
H           97.27042776506929       -0.40917281849163       -4.65925113980710
H           95.42008631766680       -0.03129609187004       -0.88508008742862
H           91.95193341590682       -0.43731603599739       -4.55305531048001
H           90.10232064239275       -0.27407452764160       -2.59853641153639
H           90.21789151586194        0.36478438020901        2.64108545176989
H           92.13523021315672        0.64280882520656        4.48986376600525
H           94.07992548130976        2.98626432357109        2.81083722014562
H           94.72062112923528        4.50097470199396        3.49417951202614
H           95.76617751589838        3.05904669314664        3.39990939410319
H           94.33791919230556        2.90970920824015        7.36652185989782
H           94.77193268611235        0.87033989096707        8.71377563472216
H           95.26057414878402       -1.26787241429215        7.59829142153966
H           95.76922822140273       -3.53837865503500        4.80354311629223
H           96.51074181326386       -2.70192510270615        6.19311821829865
H           94.76874438702873       -3.10932070969609        6.21613904096252
H           97.45936799310125        0.59955694703491        4.37845007546997
H           99.29835472189998        0.31655560925090        2.42399509756283
H           93.96840210003965        0.15414127514680        0.71810327053124
H           93.56651461694733        2.17568553823477       -4.15781275315200
H           94.59994395005597        3.56654700039312       -4.58061577542385
H           95.25598314945412        2.24895483888896       -3.57787524472511
H           94.97704838218868        1.12901814997574       -7.99186279647544
H           94.59767512957511       -1.17883357339914       -8.82321750038219
H           94.18363175054367       -3.01302912139547       -7.23556294702787
H           94.70466557053221       -4.47724308801971       -5.47073228215977
H           93.72757674428325       -4.57659665706050       -3.98221317236749
H           92.95768242547406       -4.09369863484744       -5.51675357163826
C           43.70002233350975        0.13658746668061       -0.10713685374580
C           44.92417343127219        0.12504816837981       -0.13461575829479
C           46.26670309700499        0.11213556026191       -0.16247377898485
C           47.49698162486865        0.09881812782406       -0.18882032233835
C           48.83473495783215        0.08587314992755       -0.21535239318879
C           50.06518014438046        0.07449744725785       -0.23907893292117
C           51.40757708129174        0.06571510764031       -0.25937706340316
C           52.63222499801530        0.05500078604510       -0.27612162954243
C           62.31669370350863       -0.03813456949815       -0.17860293659998
C           63.54185476389927       -0.05069532057947       -0.16626924222356
C           64.88311684779021       -0.05749205776405       -0.15780916101476
C           66.11431430370961       -0.06316730675964       -0.15683311738474
C           67.45100548318355       -0.06683653803877       -0.16028243072971
C           68.68229294532323       -0.06587537315402       -0.16746444328770
C           70.02354578274448       -0.06294227793795       -0.17978413556635
C           71.24876199305631       -0.06227895431937       -0.19427911782554
C           80.93252330893264       -0.08177548205257       -0.10880172666942
C           82.15694062942707       -0.08459650394795       -0.07738066108212
C           83.49903092666490       -0.07918095612124       -0.04629862128185
C           84.72945401911610       -0.07017744430396       -0.02221091368731
C           86.06715510162596       -0.05381169595691       -0.00292971333363
C           87.29762930158154       -0.03482181872020        0.00846114594264
C           88.64017568555407       -0.01125336692483        0.01005244311882
C           89.86445792566343        0.01042058886487        0.00186849180558
C           54.03666553826223        0.04852760216006       -0.28657056328685
C           54.67249854658758        1.25425570797942        0.06646708303372
C           54.03400002401877        2.46949330390595        0.42835100212160
C           55.00773889601369        3.39305631527993        0.69171826930743
C           56.26952746846376        2.76880720841286        0.49526110134001
N           56.01558603017808        1.47643473360732        0.12115366845884
C           57.53174067380095        3.34575923381583        0.66842109262596
C           58.75345308607636        2.69477087456147        0.50490860356447
C           60.04131046065087        3.34454091434550        0.66959364522623
C           60.97826371783389        2.40428027792818        0.43133111881346
N           58.92967194302550        1.38848767932485        0.16068223401241
C           60.26077205416669        1.18437487957965        0.11420482724812
C           60.91371312538408       -0.02553262604097       -0.19898275025834
C           60.27937034286116       -1.23420301957948       -0.54690818749456
C           60.91569565059499       -2.45942100258446       -0.87549375555166
C           59.94122635782951       -3.37308762400237       -1.17195818321132
C           58.68159765661171       -2.73016202790424       -1.03187334981926
C           57.41964847266486       -3.29352638352825       -1.24672704217258
C           57.40436534340699       -4.73561612840829       -1.63896271954374
C           57.15806424484055       -5.67189432122107       -0.61556833658808
O           56.92522196749987       -5.13871393728783        0.61398768167929
C           56.62846081850353       -5.97703057512960        1.71241818951529
C           57.17537156267905       -7.03849552209582       -0.87018289699855
C           57.44713232439512       -7.48444758528589       -2.15817526972513
C           57.68125501994571       -6.58544756149291       -3.17854073482094
C           57.65575581198435       -5.20721618176988       -2.93030207293163
O           57.91341371878127       -4.43739231701887       -4.02077482763101
C           57.50871654561478       -3.08448245101701       -4.12930319103656
C           56.19755478530737       -2.64839270592542       -1.06460087733906
C           54.91242106839518       -3.28909899458111       -1.27520507257804
C           53.97314588335797       -2.35791376144329       -1.00753351306217
C           54.68768967276878       -1.15043267956164       -0.64142763335518
N           56.01951959233371       -1.35139548473438       -0.69002651096823
N           58.93672323816975       -1.43930724017406       -0.65051819251327
C           57.55243005722915        4.78346412423866        1.06234405409469
C           57.14206311949460        5.77127821541856        0.15711476495626
O           56.73875552526346        5.32798477598835       -1.06336644188833
C           56.33123753020212        6.24573162836054       -2.05859548036033
C           57.17110301381403        7.11693477757980        0.52128635374605
C           57.60333557835480        7.46860815391077        1.79103703643347
C           58.00749116404435        6.50826553677215        2.70587083279476
C           57.98385501855344        5.16262501244808        2.34081844480495
O           58.34870675343073        4.14939166778183        3.16875520776712
C           58.83213361611620        4.42454914033828        4.46837506858382
H           52.96603948323941        2.60823120885605        0.47921354284082
H           54.86919530103353        4.41743391903062        0.99656129398304
H           56.72937186605159        0.78338355968409       -0.07697620090027
H           60.18405841076737        4.38073406423946        0.93009842506182
H           62.05208579522039        2.50022590939368        0.45577476697011
H           61.98284667298479       -2.61243787204718       -0.88201924036010
H           60.07605040157200       -4.40267781479039       -1.46095876201179
H           56.45969749613459       -5.31424764018192        2.56319452833725
H           57.46299389052610       -6.65096388868853        1.94119966117942
H           55.72315577763296       -6.56921790106050        1.53209549669868
H           56.98917504857040       -7.75486260932397       -0.08145917760434
H           57.46837180730122       -8.54921974674749       -2.36110159101267
H           57.88651392805324       -6.92106497674241       -4.18715509478294
H           57.55820452890678       -2.83808933175206       -5.19285478388546
H           56.48262602986122       -2.94330538932952       -3.77402817360902
H           58.18011406017800       -2.41710793858020       -3.57808295872936
H           54.77607482637249       -4.31423175846301       -1.58021926676444
H           52.89960421608399       -2.45184101927136       -1.04740302213275
H           58.22473425211308       -0.74211387393913       -0.46020718412184
H           57.14132892352965        6.93557129135130       -2.32394624275620
H           55.45424760827046        6.82158623658155       -1.73915814203194
H           56.06810774998787        5.64802182870990       -2.93324059073127
H           56.86139901860605        7.88748873834076       -0.17182728932358
H           57.62427216512140        8.51511420074424        2.07451452366700
H           58.33564633481578        6.81114799031311        3.69109890302611
H           59.73650136260764        5.04402122086424        4.43694500909381
H           59.07494988414693        3.45756618242239        4.91265560117768
H           58.07229824750204        4.92261957734731        5.08266591577222
C           72.65179881344041       -0.05714563853163       -0.20767137326078
C           73.27960041406392        1.15485691496158        0.13999414717630
C           72.63266040609618        2.36471397620156        0.50389294726837
C           73.59989276724735        3.29799225944897        0.75743471008124
C           74.86574255888161        2.68493927001006        0.55271989847449
N           74.62082471785632        1.38908964708398        0.18467451380846
C           76.12401113855776        3.27422595872956        0.71368070987418
C           77.35021399538512        2.63186377816278        0.54853427286387
C           78.63387112670713        3.29196807345417        0.70589833959528
C           79.57699790017415        2.35606103650532        0.47566424526898
N           77.53496556082203        1.32468411303337        0.21310552758552
C           78.86771482624491        1.12897659505359        0.16741243302674
C           79.52848582825428       -0.07725788220683       -0.14142975414474
C           78.90348697682313       -1.28831865881482       -0.49588862335027
C           79.54860291830046       -2.50732198073893       -0.83118127813173
C           78.58075296857160       -3.42625648303107       -1.13270334914965
C           77.31640447847107       -2.79364379570198       -0.98773037019995
C           76.05819269938155       -3.36658741217101       -1.19918203078943
C           76.05201133564648       -4.80685825692901       -1.59800665374417
C           75.81379995877479       -5.74976402117015       -0.57881826976169
O           75.58034998004143       -5.22423872918602        0.65388582834945
C           75.28575935338120       -6.06935012563080        1.74768127383993
C           75.83890338136308       -7.11489894721321       -0.84055649693095
C           76.11021548530883       -7.55252544830655       -2.13149705074386
C           76.33589831770362       -6.64688965619926       -3.14794823373524
C           76.30221316389554       -5.27020030480010       -2.89252836957453
O           76.55102559004672       -4.49226385381196       -3.97941149235778
C           76.12731017241160       -3.14457836849003       -4.08139860573958
C           74.83170112390150       -2.73325067903355       -1.00620437704333
C           73.55101722937624       -3.38483490362197       -1.20950622065752
C           72.60535906704986       -2.46319929903504       -0.93122383788316
C           73.31174445610598       -1.25056525302016       -0.56679963183194
N           74.64459542136585       -1.43903777076212       -0.62551639742756
N           77.56221636150369       -1.50272204909249       -0.60067493050045
C           76.13379370712667        4.71513181060919        1.09544127097939
C           75.69832592548997        5.68987267231794        0.18753938060172
O           75.28285231987223        5.23084095362618       -1.02301203718372
C           74.84425851485919        6.13386598780427       -2.01846109128146
C           75.71640308408342        7.03901508186244        0.53910669704914
C           76.16271860026147        7.40745411518240        1.79920297134427
C           76.59131696566575        6.46035738379106        2.71669388102654
C           76.57857966006151        5.11122292507755        2.36421989203426
O           76.96634825815676        4.11016514534251        3.19654795143306
C           77.47303383440958        4.40355363241935        4.48327748026450
H           71.56388033156132        2.49361269151318        0.56281556154474
H           73.45406760809378        4.32166596653116        1.06119697981650
H           75.33936233824168        0.70216522529555       -0.01760594677243
H           78.76990900286803        4.33128109658198        0.95727521944187
H           80.65012413803014        2.45975787331874        0.49823239067008
H           80.61686892371807       -2.65236414403355       -0.83909162393131
H           78.72288046106617       -4.45318897346704       -1.42764423069703
H           75.11320562166179       -5.41155253633099        2.60156633848658
H           76.12277184446420       -6.74098881258034        1.97412744066217
H           74.38311544366073       -6.66430904022012        1.56319231411835
H           75.65887470459640       -7.83641265409340       -0.05509302979635
H           76.13740019931033       -8.61609743519542       -2.33994588933989
H           76.54003211796028       -6.97610178174426       -4.15889738920314
H           76.16917914126785       -2.89343969837195       -5.14417000573226
H           75.10078298726150       -3.01896283914644       -3.72156403098152
H           76.79155594204428       -2.47010395443504       -3.53014827145032
H           73.42149250160199       -4.41008501799173       -1.51701194526106
H           71.53246330409860       -2.56686746471634       -0.96319662502147
H           76.84512098736811       -0.81213440753389       -0.40551207410598
H           75.63919624809492        6.83306906927753       -2.30427466278670
H           73.96472098682528        6.69963355576392       -1.68814873061706
H           74.57428732568904        5.52473142262871       -2.88309385297348
H           75.38750795637100        7.79939139192708       -0.15640582929052
H           76.17522437204143        8.45668970613104        2.07289387579932
H           76.92957255664916        6.77605430997637        3.69445250905596
H           78.36895442122756        5.03343077309267        4.42721359138693
H           77.73667300873412        3.44383827613492        4.93143798052999
H           76.72006327466065        4.89836786947527        5.10855157185153
