248
 energy: -473.774973494919 gnorm: 0.000386436332 xtb: 6.5.1 (b24c23e)
C           49.34779567018522       -0.01464718028545       -0.02320587600050
C           49.93739015745411       -1.24248512950336        0.24640357988026
C           49.26622255245264       -2.47337504206445        0.49214497705567
C           50.21362795768538       -3.43359977606131        0.70634236288233
C           51.49464642314991       -2.81710968565764        0.60960960777879
N           51.27712600948014       -1.49989591586368        0.32486206881488
C           52.74983627019706       -3.42377900091957        0.73435738552034
C           52.75531361497676       -4.87245398107879        1.04683387922196
C           53.33409406331260       -5.78431489847198        0.15874545529731
C           53.33419497287121       -7.13798084064422        0.44169905425533
C           52.75373484394359       -7.58429351779714        1.62550977562109
N           52.74947697978287       -9.00528021813202        1.92677986849759
O           53.26599373392445       -9.74535894583094        1.12956201434077
O           52.22767770626386       -9.35549499858877        2.95389751041634
C           52.17521051370829       -6.69310520080392        2.52459677863067
C           52.17643554532336       -5.34182526064284        2.22992958296814
C           53.97886835722063       -2.77449546761569        0.58754720553503
C           55.26403595820445       -3.42556428097014        0.76963092138998
C           56.20280435100914       -2.48037974574624        0.56056172383756
N           54.15924992361593       -1.45851230711171        0.29181246692106
C           55.49255114312676       -1.25120098086344        0.26512408997982
C           56.15186320605707       -0.03837081078213       -0.01634206247992
C           55.53453034139579        1.19265422691426       -0.30786456621371
C           56.19492000001770        2.41558621313071       -0.59831448938814
C           55.24204622736465        3.37038821382523       -0.81987887299458
C           53.96689875392037        2.76198260676517       -0.65560047766761
N           54.19523728200947        1.44585084350949       -0.35386432896728
C           52.71294414068805        3.36592454551770       -0.80363016600037
C           52.70283539500721        4.81014382064251       -1.13286936926016
C           52.11296624467121        5.25805645552519       -2.31912539254848
C           52.09804489023225        6.60488360421177       -2.63242891834866
C           52.67457468811048        7.51367737295519       -1.74963457532124
N           52.65967516350079        8.92979572608973       -2.07199014852152
O           52.11462811605674        9.26338070945424       -3.09253157933668
O           53.19431783551077        9.68267702922644       -1.29888751821466
C           53.26491447747268        7.08916591853868       -0.56272863993502
C           53.27841081308124        5.73961217673850       -0.26095573648273
C           51.48300967866601        2.71503476202864       -0.65824980638465
C           50.18983229775783        3.37592901905150       -0.75512765466429
C           49.25904171233418        2.42696082126583       -0.53385358745678
C           49.98204672295440        1.19040853852977       -0.29221527294811
N           51.31904479985401        1.40323616813157       -0.36908321733808
H           48.26264543742690       -0.00543057578670       -0.02205804771683
H           48.19506277351552       -2.59593946872379        0.49401366274187
H           50.04566445818944       -4.47968601318853        0.90434429741330
H           52.01233098359498       -0.81495310079461        0.18523301459862
H           53.77022557452791       -5.42569428432570       -0.76624599917175
H           53.77445113311651       -7.85264256977740       -0.24321978045166
H           51.73431397683168       -7.06534704072804        3.44152589119378
H           51.74126121755157       -4.63687005279968        2.92870509316311
H           55.40828384295154       -4.46048382250325        1.03379206524901
H           57.27486397320033       -2.58263240455747        0.59718318952287
H           57.26439236213746        2.54273058690039       -0.63143229101087
H           55.40659595807646        4.40281392179036       -1.08139210188971
H           53.46348249088751        0.76145368880261       -0.19288188370529
H           51.67909503316520        4.53921033388535       -3.00428601166339
H           51.64862075016331        6.96055774995555       -3.55178749078290
H           53.70165637643507        7.81722672488543        0.11023915717528
H           53.72058893351437        5.39893840358633        0.66804884123554
H           50.03995500791191        4.42538322765638       -0.95065555125339
H           48.18502258167165        2.52420620621008       -0.52004260781597
C           88.84650876434500        0.06751814409161       -0.03298399695536
C           88.23476784742060        1.25392380526974       -0.41563413076252
C           88.88326743245658        2.44959433642538       -0.83480612582114
C           87.91905407849808        3.37825749769283       -1.10617618383264
C           86.65019687187976        2.78233674299088       -0.85117596450558
N           86.89107124918350        1.50024193154534       -0.44914562304204
C           85.38454754408319        3.36244311269619       -0.99714779610607
C           85.35062399701602        4.78247411592144       -1.41799793499106
C           84.71307073931905        5.15143318977148       -2.60662733997329
C           84.68433417248859        6.47458040233798       -3.00780427065042
C           85.29400123769753        7.43908098779475       -2.21056581846986
N           85.26696868695667        8.83062338914600       -2.62663085804113
O           84.70948795716464        9.09210362682695       -3.66119921386994
O           85.80466902786655        9.63633812709653       -1.91114343486030
C           85.93038020624036        7.09371683069290       -1.02186226528764
C           85.95843001758161        5.76695992058638       -0.63267558989172
C           84.16847065486127        2.71045813164504       -0.77416700229943
C           82.87306214183694        3.36132770749993       -0.85941520330329
C           81.95257812270779        2.41676731984783       -0.57739848154729
N           84.01342188870191        1.40453155022698       -0.42477607956719
C           82.68560959614383        1.19351519594327       -0.31307558850486
C           82.04957167621269       -0.02007968062435        0.01523489779967
C           82.68755815634478       -1.22752347627583        0.35544454541336
C           82.04894641046008       -2.46089610010803        0.65112603350539
C           83.01840327159323       -3.38270012698211        0.93371787700161
C           84.28125146401506       -2.73726975659589        0.82388585766977
N           84.02994685323033       -1.44008206486847        0.46470580281284
C           85.54624952223466       -3.30850105742797        1.00432551509567
C           85.58355863736867       -4.72942428871140        1.41977304466359
C           86.21201423878465       -5.68298545405302        0.61243678502134
C           86.25283549521608       -7.01125857771734        0.99460949746703
C           85.66464331116559       -7.38984099399219        2.19808774442511
N           85.70777849437533       -8.78313832917705        2.60614566541815
O           86.27050604587276       -9.55979962990456        1.87794411812727
O           85.17768019220192       -9.07547582828479        3.64704614436622
C           85.03564360946542       -6.45660924350497        3.01720754877229
C           84.99496230022550       -5.13169161694097        2.62280060131613
C           86.76338056876857       -2.64341169666336        0.81877227385540
C           88.06846516060014       -3.23782257462976        1.06732430229049
C           88.98101049977751       -2.29035641670908        0.77477772805702
C           88.23492330786237       -1.11536898960765        0.35893499281591
N           86.90223795391067       -1.36138181149984        0.40843753812044
H           89.93164530513229        0.07554315648633       -0.04292150906952
H           89.95151896042297        2.56846748223863       -0.91922973151105
H           88.06774803575023        4.38495842696912       -1.46137607415364
H           86.16834211340040        0.82863527771460       -0.21292657921483
H           84.25344252517655        4.38916745734543       -3.22480815070311
H           84.19883270799785        6.76913024931514       -3.93042640428089
H           86.39276695729210        7.86413345497389       -0.41658838800051
H           86.43878553484369        5.48776903076022        0.29789187694174
H           82.71160497567399        4.40276826429079       -1.08547301161252
H           80.88064190316385        2.51897077591072       -0.52939955420081
H           80.98282741736212       -2.61865407856268        0.63604347157585
H           82.87412180074855       -4.42135726367090        1.18244608015736
H           84.74951920771208       -0.74575107010922        0.29195491480703
H           86.65517708985378       -5.37758555902305       -0.32817963029724
H           86.73194587982130       -7.75789570879178        0.37277794970924
H           84.59013227265311       -6.77609865852816        3.95164492730940
H           84.52127418043501       -4.39343056115050        3.25941132098186
H           88.23794067308941       -4.23856022458063        1.43045567663464
H           90.05644985237818       -2.34739019033472        0.83263569955710
C           57.56282152643718       -0.04202297490547       -0.01275270558088
C           58.78011901917402       -0.04155128183510       -0.01088084083303
C           68.49864442185157       -0.06256447489710       -0.08575219440100
C           69.71687277335160       -0.07013293023955       -0.09606126697420
C           79.42308436174858       -0.05834040314206       -0.01438409643413
C           80.63989897967380       -0.04071880276980        0.00531960004972
C           60.19005549645787       -0.04014448304674       -0.01491630487167
C           60.81564511345072        0.92016217656518       -0.83257719258128
C           60.17155454756900        1.89763738051392       -1.63359406908998
C           61.13732793971326        2.60698411160654       -2.29308899824494
C           62.40145985313912        2.06993229350624       -1.92636310189790
N           62.15736259067781        1.06406949794044       -1.03114584943812
C           63.66014393125639        2.47786455647858       -2.38643806207630
C           63.67055233663378        3.56934238844013       -3.38967157258344
C           64.31871971736982        4.77558466923420       -3.10640679859979
C           64.32574745217848        5.80416432424553       -4.03077834518661
C           63.68355551858281        5.62294776840377       -5.25224537144356
N           63.68555671963684        6.70080611403403       -6.22677755730163
O           63.10119881027511        6.51506774237526       -7.26300191786995
O           64.27006863600799        7.71238748491775       -5.93676754151680
C           63.03843020009624        4.42791065888684       -5.55676394372612
C           63.03269721360429        3.40740871399489       -4.62325034421312
C           64.88936293055919        1.94736042649613       -1.99021386210995
C           66.15900868900258        2.33141040339063       -2.58120884780963
C           67.10758953346547        1.61539893319601       -1.94357180031320
N           65.08657006839115        1.00144173501545       -1.03180421322111
C           66.41864289063410        0.79773933715201       -0.96567359721278
C           67.09070389715723       -0.05797464853331       -0.06943997239252
C           66.46422249167618       -0.91737144264265        0.85445445068379
C           67.10527454614625       -1.74232672141357        1.81359266127581
C           66.13900535333393       -2.44216507732766        2.48247866774749
C           64.87695104149242       -2.06640221982464        1.94682133518623
N           65.12301113227835       -1.13130784412292        0.97811649840325
C           63.61869695012481       -2.53970999793578        2.34008492702899
C           63.61400617697278       -3.60758344739552        3.36855995296274
C           64.23751082208079       -4.83319785658938        3.11505915995093
C           64.23116923097305       -5.83581647178570        4.06772565849458
C           63.60092999517093       -5.60853813425169        5.28762242849618
N           63.59312055989658       -6.65760008867860        6.29316320966908
O           63.02802698042449       -6.42903118713465        7.33143743283302
O           64.15275503120850       -7.68924465698529        6.02553237977213
C           62.97831619815643       -4.39430058626121        5.56173733776076
C           62.98570942787553       -3.40019431862239        4.60031549822250
C           62.38673559323371       -2.09693397222210        1.85375902879403
C           61.11027872801741       -2.66084775841972        2.25666185690454
C           60.16119808008555       -1.96232116513833        1.60119623800909
C           60.85715639145075       -0.98420468214830        0.78931836724989
N           62.19259090940557       -1.09726993647218        0.95154847958326
H           59.10482156571432        2.03623453096925       -1.69491614316912
H           60.98713627427647        3.43270296273303       -2.96900861821978
H           62.87440589660883        0.50469522841888       -0.58141454191467
H           64.80461657392678        4.90762313038228       -2.14673256767631
H           64.81845754178417        6.74512148020245       -3.81737621080503
H           62.55184724561398        4.30991450449799       -6.51749490364325
H           62.54561124393194        2.46725200254331       -4.85444385788001
H           66.28432823215765        3.03603561155865       -3.38715894771724
H           68.17175023490455        1.61222276742962       -2.11282534349276
H           68.16921608219697       -1.78125588881731        1.97741418186714
H           66.28597543700259       -3.14600489982839        3.28518264215484
H           64.40697699087239       -0.66212869678557        0.43378798556225
H           64.71320718648700       -5.00273765038236        2.15607383193765
H           64.70492679007151       -6.79138327393460        3.87753295106144
H           62.49872956281308       -4.24126775902054        6.52103463589836
H           62.51497182857659       -2.44595508182702        4.80581323188247
H           60.97879322472792       -3.48568389844850        2.93776961652836
H           59.09110136012413       -2.07967805215310        1.64762623799072
C           71.12484685407750       -0.07550956587839       -0.10270814712062
C           71.76207801379144        0.98290719997926       -0.77964035491990
C           71.13307943945526        2.08172681533044       -1.41870247929836
C           72.10636351700205        2.84435492589766       -2.00379270809818
C           73.36084574238056        2.23037579439192       -1.73940540063377
N           73.10396743099865        1.12086517226646       -0.98033379301248
C           74.62238966440358        2.66827676923432       -2.16297804203827
C           74.64088434326834        3.84350632810430       -3.06540078176431
C           75.31806394446465        5.00954735696229       -2.69505580252470
C           75.34140275291469        6.10645251278809       -3.53701429314858
C           74.68672363133956        6.03507762154886       -4.76319166630618
N           74.71371230270107        7.18211344249431       -5.65503070349384
O           74.14089587351913        7.08080790253699       -6.70912902731585
O           75.30738181411047        8.16150202033710       -5.28435318195793
C           74.00745527546226        4.88399619943097       -5.15135184204739
C           73.98439579082712        3.79505107178979       -4.29919490636456
C           75.84676850219154        2.09526953630998       -1.81210529108881
C           77.12711405197994        2.53407138005828       -2.33937127576619
C           78.06661343046837        1.77227474550085       -1.74252031921735
N           76.02763087054332        1.06674587892287       -0.94027467979668
C           77.35958366089550        0.86511679009651       -0.86041803311650
C           78.01452227237834       -0.07095336904157       -0.03691278327783
C           77.37906701629734       -1.03111924806592        0.77270528661402
C           78.01030117303941       -1.94949872352184        1.65031273409298
C           77.03769541233710       -2.72538892678435        2.21948736259022
C           75.78311471290968       -2.30651858692589        1.69834336385919
N           76.03831391150162       -1.26971965271990        0.84276779890267
C           74.52091324585633       -2.83956515399505        1.99111962458304
C           74.49565985120886       -4.01206849791848        2.89661828279509
C           75.17082635240732       -5.18832292029279        2.55626029977742
C           75.14934096230238       -6.28151166312184        3.40319602581915
C           74.45165219691678       -6.19602082373678        4.60447034301967
N           74.43274417762093       -7.33888915169125        5.50164518202532
O           73.80975439568495       -7.23177682180322        6.52622700614243
O           75.04111199322033       -8.32140998779369        5.16416366972181
C           73.77318305160378       -5.03464843354627        4.96251640649991
C           73.79580262936112       -3.94941680101611        4.10585813277039
C           73.30034070346642       -2.36079565283694        1.51006241566980
C           72.02615793274148       -3.01313924636877        1.75376105964709
C           71.08672883759876       -2.24555605632918        1.16403479190287
C           71.78620144625509       -1.12903184947807        0.56107299505840
N           73.11592886168387       -1.23972389060629        0.76070738215090
H           70.07196631709570        2.26712579453671       -1.41872001431292
H           71.96930021339713        3.75878181474253       -2.55732310255141
H           73.81359885147549        0.49334586951350       -0.61736395235675
H           75.81454844643513        5.05595156451700       -1.73288698992476
H           75.85878778956365        7.01608550951205       -3.25668557872555
H           73.50933916234212        4.85261499169980       -6.11291693109014
H           73.47060971148467        2.88809057897206       -4.59610569389800
H           77.26624941498568        3.30649375660361       -3.07807563235775
H           79.13513207684636        1.79213967366847       -1.88266364212235
H           79.07222028760035       -1.99813399831322        1.82802251502655
H           77.17596476332751       -3.50972046463492        2.94547843198477
H           75.32810582386972       -0.74908893486880        0.33908085517222
H           75.69923172129211       -5.24764084091535        1.61184148308773
H           75.66387649504082       -7.19932775960892        3.14515294143663
H           73.24029737333274       -4.99278983402170        5.90484383587390
H           73.28219400200369       -3.03479446791769        4.37820914358154
H           71.89191544742646       -3.94164127274425        2.28446615340812
H           70.02294241945521       -2.40949290833090        1.11267780056808
