191
 energy: -350.776967961109 gnorm: 0.000822060785 xtb: 6.5.1 (b24c23e)
Cu          29.43662114330933        0.00828123113339       -0.00107972538612
C           26.03020930043304        0.05278172761362       -0.06177558243778
C           26.66765767242517        1.27389649685806        0.09640934166534
C           25.99443032977290        2.52909200385937        0.27065216931210
C           26.95467709603053        3.47684033752053        0.40481143772975
C           28.22441421078851        2.80923886695824        0.30437720383559
N           28.01895402983672        1.47187518897336        0.12597705790674
C           29.47068489801008        3.43229667884996        0.40817373887801
C           29.48315101687740        4.90464047490242        0.58384534062241
C           30.02017022842946        5.47637974582541        1.74112627398980
C           30.02216916783532        6.84816668750731        1.90532518971569
C           29.49271342377565        7.68057059367152        0.91356234585865
C           29.50593787468620        9.14118196884970        1.11220404859800
O           29.95189306815280        9.67947114272608        2.09308081388074
C           28.95993408276943        7.11069053271617       -0.24529344416786
C           28.95297571531988        5.73662544949208       -0.40619915331114
C           30.70322068982527        2.77775819990411        0.35938052929099
C           31.98194630945462        3.42778441632947        0.41727684097514
C           32.92605404526773        2.45793955872225        0.31962922671532
N           30.88885610540655        1.42838780516111        0.21456176073054
C           32.23235279622870        1.21140982606363        0.19335085282598
C           32.86629152953120       -0.03600693068196        0.05424287806167
C           32.20516373535466       -1.26725930626709       -0.10011696610500
C           32.87129536681276       -2.52416357482012       -0.26597368920091
C           31.90605337486109       -3.46944096851248       -0.39329215681537
C           30.64190004034882       -2.79558030952997       -0.29856011694023
N           30.85721000342910       -1.45368795769649       -0.12802590080623
C           29.39550610004035       -3.41644348679066       -0.40286867987272
C           29.37621731000662       -4.89008236794314       -0.56770961353012
C           28.83939779836600       -5.46450249909248       -1.72315322655162
C           28.81652310725055       -6.83927760784167       -1.87707550232538
C           29.32498072616103       -7.66809338275642       -0.87405945522223
C           29.30575805560763       -9.13584147638686       -1.01034178095635
O           29.72604281378675       -9.89150419947905       -0.17191073978332
C           29.86117844246106       -7.09349547282640        0.28314245397298
C           29.88955893768810       -5.72041406665888        0.43310859368718
C           28.16333556630732       -2.75917682791434       -0.36082652218878
C           26.87914510351891       -3.40338710295974       -0.42303065246671
C           25.94003404922207       -2.42987627200067       -0.33023026548285
C           26.64073665493967       -1.18429492406454       -0.20098898876357
N           27.98732068884700       -1.41324778382843       -0.21880300239487
H           24.94520718403219        0.06520859278514       -0.06619415753196
H           24.92330732391330        2.65353886363218        0.29327358260656
H           26.82192501802155        4.53372156365449        0.57116410821847
H           30.41966762457981        4.83326239039363        2.51714343018729
H           30.43038689143462        7.29936769957031        2.80332703933838
H           29.06669043384057        9.71945421620828        0.27138919608315
H           28.55112014709756        7.74932435911917       -1.02161445562656
H           28.54886336371550        5.29743369196452       -1.31139456456622
H           32.13416061168135        4.49110834085663        0.50712946296709
H           33.99862526001889        2.56774931575450        0.32513797910511
H           33.94124329308298       -2.65561946093716       -0.28705813401831
H           32.03459338532069       -4.52798785139472       -0.55098370359060
H           28.45374672490193       -4.82321939773592       -2.50775424187612
H           28.40275203883724       -7.27667298071191       -2.77992479717523
H           28.86446448592920       -9.49940743326544       -1.96288809923213
H           30.25058744110259       -7.74496256391891        1.05811495175538
H           30.29464658892119       -5.27818884415513        1.33629582255932
H           26.72299751702541       -4.46634973165828       -0.51254981597684
H           24.86639257939401       -2.53242317444721       -0.33944364910171
Cu          61.52323428946623       -0.03533995233832       -0.02353694449511
C           64.92992582688892       -0.06898662648663       -0.06038934422084
C           64.29337713945026       -1.30055497948865       -0.08320910874758
C           64.96736292390095       -2.56737271575693       -0.08208969978310
C           64.00775101106396       -3.52511976803586       -0.09513794589424
C           62.73775166784949       -2.85075062624180       -0.11419687517742
N           62.94227204758440       -1.50150968096081       -0.09682702061330
C           61.49163644053609       -3.48278131809871       -0.11784455334880
C           61.47976268090250       -4.96497402154811       -0.15587014423257
C           60.92417437878203       -5.69669815008095        0.89800825253619
C           60.92224861129237       -7.07781989641833        0.86377663114792
C           61.47053727819328       -7.75962439485703       -0.22772689804161
C           61.45607239837375       -9.23356088017135       -0.24129388370700
O           60.99331092572077       -9.90677402184598        0.64377598626946
C           62.02221408012978       -7.02960685161509       -1.28333691422187
C           62.02876649182275       -5.64666603739947       -1.24556334184804
C           60.25843239340901       -2.82824665756048       -0.08791823984584
C           58.98042266434444       -3.47988798334544       -0.14385221569289
C           58.03561283356429       -2.50648405355787       -0.10824937653521
N           60.07185019591437       -1.47236916779159       -0.03403742514128
C           58.72827143499937       -1.25492621281550       -0.03863614451140
C           58.09339990836692       -0.00121854813060        0.00892956345716
C           58.75346045645163        1.23953866684902        0.04952679477157
C           58.08643398298293        2.50672295072264        0.06982675932326
C           59.05099686174457        3.46103220939628        0.08806618049287
C           60.31565825771508        2.78142363957059        0.08702964468523
N           60.10130158964564        1.42892001380914        0.05635599149319
C           61.56177904502257        3.41153246011431        0.07886164638963
C           61.58069118628337        4.89351440560866        0.12855782923502
C           62.12372782350939        5.62814677735814       -0.92913534414945
C           62.14773534495615        7.01070407422923       -0.88304225504692
C           61.63390609075230        7.68666593274028        0.22625655908905
C           61.65543330263020        9.15868009085142        0.30369873191370
O           61.22995490119605        9.78605487846951        1.23961403477591
C           61.09083243346383        6.95168944557908        1.28533038038554
C           61.06167692872670        5.57132784664024        1.23570322108053
C           62.79457553763066        2.75570588068059        0.03073830199609
C           64.07825221498670        3.40283634908095        0.06959416990430
C           65.01816660303570        2.42658676727968        0.02793082276974
C           64.31846540423356        1.17499234155823       -0.02726388081822
N           62.97168711529790        1.40347122152210       -0.02141075446518
H           66.01494711967605       -0.08006700923942       -0.05692591243176
H           66.03843531698040       -2.69316731293508       -0.06534536778812
H           64.14106052331499       -4.59482503895423       -0.07939725181657
H           60.50995178212903       -5.17141053676620        1.75117886443801
H           60.49924956154564       -7.65296084476106        1.68042621120021
H           61.91503060898222       -9.68549339985999       -1.14650861206005
H           62.44599335671034       -7.55044757059007       -2.13586204943725
H           62.44720601518693       -5.08241947252691       -2.07146155762952
H           58.82921911911948       -4.54475866844182       -0.21519630383756
H           56.96328605235400       -2.61614998626158       -0.13251989309407
H           57.01641494685808        2.63913225754996        0.06388273685438
H           58.92163741323878        4.53115529975000        0.08847126759328
H           62.51364898168327        5.10636579366061       -1.79590264834453
H           62.56672583354811        7.57332500347797       -1.71103122062992
H           62.10160392569078        9.65530234015319       -0.58433346254531
H           60.69713496981744        7.48495780929259        2.14396622296904
H           60.65184115111229        5.00393252253103        2.06364818143470
H           64.23354566343940        4.46769284857731        0.13465396839942
H           66.09169157505974        2.52996978349791        0.04057193234532
C           38.06914923980931       -0.06639811898693        0.06248268585644
C           36.84085024198588       -0.06533121665036        0.06266469032939
C           35.49606723054556       -0.05939420584794        0.06187706177615
C           34.27237005225472       -0.05104877599439        0.05884313374473
C           39.41378986868174       -0.06641634568565        0.05622580927772
C           40.63768437475984       -0.06105953166946        0.04960544911866
C           54.11868072161665        0.02213788652628       -0.00381886811270
C           52.89046765089960        0.02238334803792       -0.00526878724675
C           51.54576466517317        0.01742989232620       -0.00490829840873
C           50.32191174743206        0.00862543333531       -0.00610212778504
C           55.46351055253258        0.01580043353999        0.00363164390907
C           56.68718920689218        0.01118743482663        0.00644586961568
Cu          45.47975727047761       -0.02452216586817        0.01641768367585
C           42.04303119736268       -0.05112016371447        0.04085877166513
C           42.68507727175014        1.15386982510228        0.37918019565645
C           42.00042996422676        2.37360681951043        0.68550448976821
C           42.95143518268019        3.30031012814877        0.96684442128617
C           44.22385930870520        2.64786395536631        0.84261743459415
N           44.02893394227331        1.34325571690007        0.47558051562136
C           45.46182247830360        3.26283799831885        1.04346231733190
C           45.45449540993270        4.67786491603991        1.48633887082523
C           46.03003709033294        5.67201136907477        0.68924548362387
C           46.02087761486486        6.99015052400569        1.10274118606142
C           45.44139349303789        7.34424215995415        2.32567198288796
C           45.44726044536466        8.75732369565744        2.74611232958276
O           45.92781880336054        9.64776476174372        2.09289378093282
C           44.86837281430624        6.35153546449771        3.12420451165054
C           44.87253749671734        5.03256930652847        2.70654304769652
C           46.70646484403724        2.65554479454852        0.86180687579795
C           47.97202195684000        3.27559073183641        1.13447374403713
C           48.93297167164236        2.36282893085180        0.84207700527628
N           46.91540626158712        1.37564149388113        0.42254660698762
C           48.26140463536091        1.17847120657014        0.39842869518073
C           48.91643299515117        0.00028723860360       -0.00285966345972
C           48.27393685238118       -1.18655175523228       -0.39911549227946
C           48.95738504220282       -2.36017474526218       -0.85278253420934
C           48.00633636479630       -3.28627933768255       -1.13595901780432
C           46.73528535126007       -2.68540043964946       -0.84683980321428
N           46.93079034423570       -1.40332698541337       -0.40783702157384
C           45.49758185725197       -3.31116519885881       -1.01296038908214
C           45.50509392839540       -4.72549546387723       -1.45819683588483
C           46.10338233243706       -5.71117299973370       -0.66835952799015
C           46.10888182003252       -7.03196299459492       -1.08018254730635
C           45.52108002277923       -7.39263505164208       -2.29506138124726
C           45.51672302839361       -8.79214782422114       -2.75844888566415
O           45.02653418546250       -9.15125034861657       -3.79836743624781
C           44.92507572468823       -6.40587316929864       -3.08744541101673
C           44.91423452366975       -5.08824317797318       -2.67236907819651
C           44.25331767107961       -2.71531837434811       -0.79477777520083
C           42.98929373192286       -3.38679094300376       -0.90327666888794
C           42.02837936809831       -2.47534033343444       -0.60656672667511
C           42.69861663903520       -1.24585983335779       -0.30709923699670
N           44.04377484846476       -1.41461910767289       -0.42190331039729
H           40.92948535884934        2.49804767833790        0.67554278284700
H           42.80757223326663        4.33782125321230        1.22140524627900
H           46.46944206999127        5.40217012856216       -0.26443669932442
H           46.45997699198151        7.76818571685173        0.48753354272317
H           44.96805091248235        8.94183456928195        3.73124808443686
H           44.42001143036101        6.61703538053275        4.07609626683360
H           44.43769056806278        4.26242106221621        3.33369866648095
H           48.10485353693753        4.27538419517803        1.51475042498738
H           50.00266048954550        2.47012498374724        0.92411219097499
H           50.02747329559223       -2.45151421646111       -0.94816322546268
H           48.14910463277305       -4.28310759979853       -1.52052268068857
H           46.55017941909524       -5.43571445646504        0.28033652072084
H           46.57007727293693       -7.79173370547728       -0.45756086735147
H           46.00981636288404       -9.50424524968969       -2.06278719756339
H           44.47446198223124       -6.69457930854740       -4.03096543655488
H           44.46166809308038       -4.32388202864296       -3.29393555194182
H           42.85775254030291       -4.42555100179144       -1.15929891941227
H           40.95964133097164       -2.61578149550442       -0.58250580129639
