186
 energy: -323.676426501418 gnorm: 0.000339676555 xtb: 6.5.1 (b24c23e)
C           31.69501621472465       -0.06662549156828       -0.02530177490701
C           32.29883954969820       -1.29215175472094       -0.27448763745592
C           31.64199605173476       -2.52229127427890       -0.56002488379303
C           32.59943785373132       -3.48256385562746       -0.72602547096435
C           33.87241779470789       -2.87276351409651       -0.53306998678348
N           33.64037610845172       -1.55134692654962       -0.27744743924931
C           35.13336788457944       -3.47613970524568       -0.59812744192172
C           35.16578161932055       -4.93197436902322       -0.86891575635122
C           35.82551590570788       -5.42196222529202       -2.00075000113180
C           35.85391139610141       -6.77830046013665       -2.26011387964671
C           35.22827436920554       -7.67832492634140       -1.39086897414162
C           35.27653760425282       -9.12161430478579       -1.68739826513698
O           35.82740606973259       -9.58851880182565       -2.65132100846163
C           34.57138618149150       -7.19090043793882       -0.25844995319834
C           34.53814850533559       -5.83158038951876       -0.00253422065384
C           36.35058658946850       -2.80859887516210       -0.43090069282281
C           37.64308497176083       -3.47077178631126       -0.41569039031544
C           38.56606969206274       -2.50246055545536       -0.24275177082149
N           36.50834953722571       -1.47074578136786       -0.24587627369122
C           37.83674677742385       -1.25231068697882       -0.14688161355951
C           38.47560346380579       -0.00501414681472       -0.02092985661113
C           37.84746914121346        1.24710622105983        0.09870107141702
C           38.49663259004748        2.50618248218844        0.20312356483228
C           37.53510070721125        3.46560834502100        0.35959677482573
C           36.26785401426328        2.81900386589570        0.36611639752640
N           36.50749094145152        1.48294723411784        0.18846719776995
C           35.00854711647310        3.41323509230502        0.50897484838750
C           34.98351422552575        4.87377566905610        0.74962758563252
C           35.62642123769884        5.41769947368319        1.86654979884094
C           35.59885444502336        6.77982884436127        2.09402044420225
C           34.93248185597368        7.63223450739732        1.20727996012487
C           34.92049582447962        9.08255255950179        1.47086353369471
O           35.46340838918525        9.59513056683312        2.41603775412435
C           34.29209566625220        7.09108976650470        0.08976693681307
C           34.31585129575731        5.72626911802928       -0.13473173632122
C           33.78992260896174        2.72799832038222        0.44827013431196
C           32.48974314555419        3.34570493278383        0.66100139067116
C           31.57344843852690        2.36897714509151        0.50803543848944
C           32.31288301737161        1.15338219537733        0.21554314839441
N           33.64496067873412        1.40496702082655        0.20099391300120
H           30.60970857451174       -0.07200271438973       -0.02180387499128
H           30.57289809509588       -2.64155414817637       -0.63398640765509
H           32.44370886009977       -4.52111267260729       -0.96898819590233
H           34.36882816814300       -0.86392582204189       -0.11600773888312
H           36.30057436097424       -4.72589656291010       -2.68275030312428
H           36.35841194964734       -7.16516301807135       -3.13899952923535
H           34.75518517021165       -9.75817927754461       -0.94099169606722
H           34.08767247376975       -7.88242834333693        0.42379285276888
H           34.04076033110060       -5.45885637946590        0.88589776365201
H           37.80021150720153       -4.53307735763653       -0.50896314651411
H           39.63803916076895       -2.59989395956254       -0.18052206514375
H           39.56423051850719        2.65048857170243        0.16115422700907
H           37.68719923037472        4.52839572219672        0.45379808095310
H           35.78223863147468        0.77503631723398        0.13765944573197
H           36.13022779922773        4.75893940252863        2.56495960715979
H           36.08915356030323        7.20779996893549        2.96184296329411
H           34.36351204752702        9.67861732283090        0.71685289895521
H           33.77645730679357        7.74547005139610       -0.60557482577266
H           33.83047289999662        5.31143297474741       -1.01091389320992
H           32.32594602264925        4.38233825189633        0.90760087304746
H           30.49962601031298        2.43150828332645        0.58871396706663
C           60.17203978480747        0.03833070677027        0.08190973486780
C           59.56800305285863        1.23293310498598        0.45155862194819
C           60.22626523225326        2.44114620861762        0.81651076408638
C           59.26890250864354        3.37055238365875        1.10956645894266
C           57.99411859367172        2.75719475119175        0.94142861810715
N           58.22570212983278        1.47333071038315        0.53749399652036
C           56.73341539323008        3.34029437022937        1.11141065500106
C           56.70782554462512        4.74594934991008        1.57922455900479
C           56.12437152942538        5.74607543717548        0.79532594990629
C           56.10130646402203        7.05468457059960        1.23755869026997
C           56.65625814200445        7.39355254616088        2.47615571914003
C           56.61395575374257        8.79593344926296        2.92882908725960
O           56.12671527969367        9.69178132654841        2.28807625186843
C           57.23910602787011        6.39534488476883        3.26055825522117
C           57.26724082975533        5.08616118638652        2.81433046952788
C           55.51439896254463        2.69528077102482        0.88294269860568
C           54.21654779574651        3.30560439418662        1.11246621808574
C           53.29491145836902        2.37113711951902        0.80209338794190
N           55.35951302083161        1.41265721927984        0.45829853975600
C           54.02999618050593        1.18811790338754        0.39599867851361
C           53.39454092431821       -0.01170013589349        0.02849248175181
C           54.02080816213559       -1.21572355760761       -0.33555679701429
C           53.36814955000214       -2.40763335805546       -0.75046918465059
C           54.32878083774654       -3.33144634106616       -1.05441015360031
C           55.59971683680074       -2.73520054754363       -0.82208209783440
N           55.36163620014455       -1.45724863121495       -0.39225769251246
C           56.86052805935926       -3.30706198397589       -1.02577466101260
C           56.89016960966084       -4.70510009570255       -1.51315404311760
C           56.31074392226584       -5.73499183372768       -0.76537292179603
C           56.33853271764192       -7.03572940842014       -1.23006377902721
C           56.94132379750287       -7.33720184139024       -2.45587368624094
C           56.95161799682007       -8.73189781180564       -2.93313638956036
O           56.46216090348441       -9.65032414729649       -2.32677771009056
C           57.52072056498709       -6.30945137773818       -3.20404524738160
C           57.49722552703513       -5.00816589441973       -2.73567282608629
C           58.07934904750834       -2.65436957932075       -0.80900994120095
C           59.38247775279758       -3.28492021122217       -0.95575621329095
C           60.29797346124138       -2.34705842437752       -0.64085749461248
C           59.55564046256608       -1.14722097549589       -0.29533084050392
N           58.22269597942375       -1.37201947117939       -0.40022938965059
H           61.25733354193660        0.04076901373318        0.09206727471162
H           61.29643425214650        2.57077607136863        0.84100456239964
H           59.42544597038005        4.39504877018834        1.40589800715063
H           57.49640496660994        0.80043003848221        0.32617998396477
H           55.70461307920934        5.48904212841573       -0.17057224865809
H           55.65507641481008        7.83714089870835        0.63319891350893
H           57.07475955030885        8.96718778460368        3.92513110972673
H           57.66866281544238        6.64853784539401        4.22442363981797
H           57.70709293912425        4.31144154510862        3.43241840701635
H           54.05380161698289        4.30713895937392        1.47607127430298
H           52.22026617853599        2.44636030884953        0.84733886424454
H           52.29892479705190       -2.52916477312690       -0.81639529614712
H           54.17330998998227       -4.33368436763212       -1.41881776931917
H           56.08932095433016       -0.78592985512987       -0.16960742692276
H           55.85597117589325       -5.50825058988409        0.19236557144142
H           55.89630910880321       -7.84085014123044       -0.65310955208113
H           57.45457146333690       -8.87452509437472       -3.91337172977764
H           57.98768321552957       -6.53367720421599       -4.15760506827445
H           57.93464468104291       -4.21048981945732       -3.32542944635538
H           59.54837972597000       -4.31051540567214       -1.24371279315721
H           61.37330942005408       -2.43054481350972       -0.62675313364894
C           39.88745574777323        0.00523342967332       -0.01542392880977
C           41.10329668746297        0.01147584395644       -0.00763912944268
C           50.76584058389417       -0.02801832139891        0.01257669662316
C           51.98129410058835       -0.02104600317090        0.02002002014683
C           42.51473016572118        0.00998157091489       -0.00167203600212
C           43.14061119720605        1.03715788885495       -0.72946680414993
C           42.49234868950819        2.03208726659626       -1.50753732430690
C           43.45649578409884        2.82600298438038       -2.06497565999232
C           44.72335450209857        2.34607795342126       -1.63251224758879
N           44.48160420316434        1.26018737908541       -0.83496053679046
C           45.98505562545304        2.85566516531459       -1.96207679467644
C           46.01142239321720        4.04608346833083       -2.84402224238363
C           46.64671534679563        3.98023635445899       -4.08840116014687
C           46.66454688851806        5.08094498976064       -4.92253820984645
C           46.05369746242650        6.27646273643827       -4.52951802300516
C           46.08550389899443        7.43669944142475       -5.43890809260553
O           46.60402650295008        7.42019575727395       -6.52576776580121
C           45.42458802273276        6.34589636552530       -3.28424380881266
C           45.40087724525111        5.24062145589820       -2.45205384071488
C           47.20680111127147        2.32605412560762       -1.53876515499352
C           48.49463746451180        2.93424567420729       -1.82459285683526
C           49.42630870757483        2.13774995689600       -1.26193777824377
N           47.37544038289134        1.19751487497429       -0.79979334877693
C           48.70689188075804        1.04717868752042       -0.63236640291443
C           49.35331319465898       -0.02481610404317        0.00763908214909
C           48.72690725904594       -1.10635105486127        0.65058869823244
C           49.37443018269573       -2.19782317473291        1.28711506267880
C           48.41051434954963       -2.99417091159525        1.84146760186185
C           47.14503263738736       -2.40695096402932        1.56547701791155
N           47.38610649063299       -1.27894017722822        0.82941328924961
C           45.88557995679073       -2.88253664345058        1.95117591154900
C           45.87134178680747       -4.08745591687991        2.81355857802336
C           45.23049707230649       -5.25625726802547        2.39318461510633
C           45.21608493209314       -6.37790236947805        3.20314976367509
C           45.83852186427073       -6.35174114892166        4.45349386525020
C           45.83340964349507       -7.53106647812792        5.33848816026821
O           46.35472078239720       -7.55439422369975        6.42393779762653
C           46.47917839724739       -5.18196558849913        4.87523541377194
C           46.49827631007793       -4.06440900869770        4.06363225231456
C           44.66208356850164       -2.30659339561304        1.60118740540199
C           43.37394246531963       -2.79279980319269        2.06363363306167
C           42.44176581250515       -1.99113580556050        1.50903894802246
C           43.16155135252219       -1.00854615357898        0.72200407332783
N           44.49236831971951       -1.21647515324675        0.80540403196286
H           41.42448003157713        2.11536490776786       -1.62993143085934
H           43.30514081672020        3.66330372579694       -2.72639429048371
H           45.20400853059590        0.69482320382366       -0.40160680153526
H           47.11019281194235        3.05123373898564       -4.40061817707666
H           47.14858983594909        5.03507774724375       -5.89219230320056
H           45.58447721499915        8.34380733515223       -5.03879001470418
H           44.95337933846891        7.27119708109374       -2.96901625294903
H           44.92348703279437        5.30295723719119       -1.48055986593366
H           48.64235458653872        3.85379558513834       -2.36720125186592
H           50.49807371800617        2.25534340315425       -1.25770451861658
H           50.44185244492714       -2.34711603238452        1.31207744667020
H           48.56004575384139       -3.91204871843591        2.38610362255560
H           46.66498174607167       -0.65845526023029        0.47689229873810
H           44.75756394276126       -5.28401611117586        1.41806113973672
H           44.72055082009904       -7.28265589722656        2.86642126558932
H           45.30207625707839       -8.41265467407338        4.92093490108843
H           46.95654468253540       -5.16904448099539        5.84920711806194
H           46.98303699809460       -3.15479937167681        4.40008182003911
H           43.22464760741307       -3.62435684781274        2.73297076047858
H           41.36997984105228       -2.03064504135431        1.61940298374320
