114
 energy: -204.957038685002 gnorm: 0.000356564069 xtb: 6.5.1 (b24c23e)
Cu          11.07627096021620       -0.03897275768096        0.00052658073876
C            7.66920855539820       -0.06192901596524        0.00143863474341
C            8.30090631814054       -1.29168692935056        0.10979042061648
C            7.62281604561100       -2.54876217892600        0.24992000565471
C            8.57933312495492       -3.50467940396262        0.34894131389242
C            9.85159723008204       -2.84016682569011        0.26176698790252
N            9.65105756244462       -1.49732786139611        0.12154353033110
C           11.09535869654716       -3.47000188894383        0.34736066479360
C           11.10395066230063       -4.94465862231203        0.50712022834748
C           11.62597333198449       -5.54386517565501        1.65280050932392
C           11.60653516324361       -6.92534650811843        1.76181697721144
N           11.11416732132021       -7.71959747025480        0.81657872274932
C           10.61789947577480       -7.15657085828721       -0.28038269679602
C           10.58824774194600       -5.78507606911928       -0.47856359022020
C           12.33047705291894       -2.82107210594413        0.30011106904190
C           13.60603868272691       -3.47837177414413        0.34509533312381
C           14.55486678110665       -2.51281529390611        0.25016856204544
N           12.52289856522778       -1.47127739042228        0.16802529782904
C           13.86714337749962       -1.26141988062842        0.13908606309080
C           14.50639506970029       -0.01651970581572        0.00195359066640
C           13.85085784587225        1.21980533586620       -0.13529363070045
C           14.52201629634192        2.47280340857979       -0.31041034145264
C           13.56087906056086        3.42575435874076       -0.40905267965331
C           12.29433568844793        2.76094370478304       -0.28579991443746
N           12.50425690385909        1.41620629343848       -0.13074116019059
C           11.05037502493312        3.39267803206800       -0.34221993918643
C           11.03943162493250        4.86803572295059       -0.49043613256692
C           10.46710227659492        5.47964360236589       -1.60528171283169
C           10.48315100191897        6.86218903681832       -1.70091761095157
N           11.01904194947815        7.64656593671032       -0.77127864929886
C           11.56476101837625        7.07190177240843        0.29583128363215
C           11.60080294548876        5.69858625777809        0.47887295018173
C            9.81512877939938        2.74388839434422       -0.27117836890375
C            8.53455711466174        3.39808046910889       -0.28217682516944
C            7.59093268952189        2.42883132928785       -0.18897013708934
C            8.28531978448851        1.17535648539908       -0.11097821372579
N            9.63251640288923        1.39610349895717       -0.15600576288193
H            6.58415804308050       -0.06741997522652        0.01542467472751
H            6.55119221052053       -2.66906916163240        0.27458011055304
H            8.44315598083408       -4.56599412383096        0.48076279074640
H           12.02741359003581       -4.93502397619843        2.45417732095094
H           12.00276143806688       -7.41458595564835        2.64686308932313
H           10.22576847112616       -7.83172996952645       -1.03544511310476
H           10.18349811260287       -5.37118135687886       -1.39447951089550
H           13.75247556827839       -4.54328081783429        0.42558386494179
H           15.62689770038061       -2.62834594002732        0.24819882325844
H           15.59211322287003        2.59642725883120       -0.35763183933000
H           13.69377597157547        4.48403517558191       -0.56489374669433
H           10.02987466529429        4.87981951167363       -2.39465356067743
H           10.04728076185219        7.36067316147496       -2.56186341041664
H           11.99257887797068        7.73888956779589        1.03863767363153
H           12.04576074625215        5.27524168679073        1.37152540435807
H            8.38430366645881        4.46404290586184       -0.34083689144094
H            6.51813536152954        2.53876110507020       -0.16704985012107
Cu          27.11383228422336        0.03694627686661       -0.01038230788212
C           30.52092509985634        0.05874570144210       -0.01631729185602
C           29.88938210228169        1.26738991303134       -0.26813628654627
C           30.56760407418590        2.51133547877054       -0.49679958476484
C           29.61119578933189        3.45493077609549       -0.67961777947086
C           28.33887284511350        2.79344520955551       -0.57248225926247
N           28.53926062817955        1.46755834302945       -0.31764442297773
C           27.09512968288641        3.42072392854080       -0.67559602392881
C           27.08655675096887        4.87799161092842       -0.95198548423147
C           26.56068767734689        5.78454081284544       -0.03231041289689
C           26.57986028966809        7.13786715689653       -0.33044987068740
N           27.07571166662108        7.62276172145181       -1.46435605705126
C           27.57589270551730        6.76503715964743       -2.34794619774267
C           27.60591587792418        5.39531895101468       -2.13794654611060
C           25.85993400234770        2.78577327888873       -0.53399295208027
C           24.58443719140432        3.42732004290741       -0.68454054996748
C           23.63554252559951        2.47594820715974       -0.49463551496654
N           25.66741918142990        1.45611365768534       -0.26683284400382
C           24.32315697655613        1.24674766172184       -0.23477893386079
C           23.68368681398064        0.01612749336921       -0.00275747679139
C           24.33900496511010       -1.20653521045057        0.22691154297750
C           23.66770806905909       -2.45594014478103        0.42566004522038
C           24.62878740925577       -3.39649457059488        0.60819637362384
C           25.89541888093254       -2.72499135746074        0.53070772560219
N           25.68560257114600       -1.39338148098802        0.28737889011138
C           27.13933349023394       -3.34620639122095        0.65869485351788
C           27.15021162649088       -4.80096648993154        0.94585499249725
C           27.71886477983036       -5.71071661545739        0.05510341111599
C           27.70305914476451       -7.06129052627377        0.36581167945341
N           27.17091094818560       -7.54097958135836        1.48535168253471
C           26.62872044677265       -6.68044294281120        2.34107290618695
C           26.59259851319648       -5.31325517073445        2.11678456379125
C           28.37463631837228       -2.70524746048923        0.53651628311558
C           29.65516497906859       -3.33508726048841        0.71392419453267
C           30.59891932361626       -2.38070312167568        0.52148357682618
C           29.90465028556126       -1.15807919665565        0.23399212372681
N           28.55740330871504       -1.38196726935856        0.25601833370983
H           31.60597762854482        0.06787436783093       -0.00458786368183
H           31.63922701557632        2.63376105789086       -0.50667183220997
H           29.74749492658044        4.50905366447677       -0.86005432506531
H           26.15649865952256        5.43526422822263        0.91038426515065
H           26.18069529315118        7.86336102326121        0.37238211947641
H           27.97059748415747        7.19125993069553       -3.26568599799420
H           28.01364691445162        4.73291700460132       -2.89227109982666
H           24.43807378851910        4.46926571767798       -0.91879342275099
H           22.56353332194124        2.58564276300770       -0.53161504144367
H           22.59756800111988       -2.58768287937965        0.41774781805164
H           24.49584252232597       -4.45417850922759        0.76802112020409
H           28.15311794506222       -5.36665199477255       -0.87608150297953
H           28.13602599563342       -7.78893949122085       -0.31445229988076
H           26.20395550027086       -7.10224729677072        3.24733660093011
H           26.15048998125448       -4.64827055938088        2.84915392755676
H           29.80525908947667       -4.37246533070730        0.96614115598599
H           31.67173972274414       -2.47995744131322        0.57309264665345
C           19.70907368855451       -0.00256685129480       -0.01209415294633
C           18.48096409235397       -0.00292189984399       -0.01167379982165
C           17.13605343769800       -0.00723921428642       -0.01012017174370
C           15.91248565134603       -0.00905745838514       -0.00737778510525
C           21.05399053944212        0.00239082871952       -0.01129481916377
C           22.27759105899039        0.00655572973861       -0.00947711050888
