204
 energy: -377.147174426902 gnorm: 0.000546549887 xtb: 6.5.1 (b24c23e)
C           23.66543934909856       -0.12335134383361       -0.22252868514966
C           24.23880048886376        1.10278575720900       -0.53338267125554
C           23.55204990875231        2.31708888384647       -0.81529331612636
C           24.48696771132086        3.27931894298953       -1.07427077233509
C           25.77522008770789        2.68120058559573       -0.96752919925802
N           25.57465747350379        1.37233134054024       -0.63332808342179
C           27.02088442821486        3.29473073335631       -1.14026852143800
C           27.00603346786283        4.73060763404891       -1.51710481067484
C           27.56293384091141        5.68821927721323       -0.67437500773271
C           27.54105668942893        7.03738005871486       -1.02553993889550
C           28.14224809596592        8.01229091563953       -0.08067564929748
O           28.06565847248643        9.28313807254039       -0.50162251768704
O           28.65353597280061        7.71585846533159        0.96854320751230
C           26.96393638439111        7.43709037925056       -2.23082099862986
C           26.41154003941171        6.48497451926557       -3.07298955859836
C           26.42841524230284        5.14281532525341       -2.72016975370215
C           28.25701380950002        2.66459637051027       -0.98446897353892
C           29.53428734305687        3.31570777840512       -1.21593918566636
C           30.48462527452414        2.39128902549164       -0.96775887901289
N           28.45255700178721        1.36673485223249       -0.62192905128516
C           29.78661355080130        1.17586706084694       -0.59442995729509
C           30.46077884046467       -0.01457809020943       -0.25411257047173
C           29.86087429401278       -1.24177035399852        0.08808558717218
C           30.54094742048433       -2.43243800265289        0.45729568719729
C           29.60191132017662       -3.39349567020737        0.71055217763589
C           28.31808305506185       -2.81995537132891        0.49473808258415
N           28.52674522926379       -1.51703974429034        0.12676085434123
C           27.07363421773455       -3.43926887137615        0.65100169049076
C           27.08494676790478       -4.87114761843918        1.03921302499444
C           27.68410884916004       -5.82617825803805        0.21475431969335
C           27.69375085973960       -7.16641342813253        0.57581484154718
C           27.10862565400054       -7.56987637769946        1.76426584391300
C           26.50795092597982       -6.62493660914150        2.59756190955605
C           25.89235604138840       -7.09683853800525        3.86355797220370
O           25.34153386817809       -6.11479668911532        4.59135638311349
O           25.87571213792907       -8.24615679811102        4.22319565197067
C           26.49621830293720       -5.27997345309046        2.23423027944849
C           25.83636554407830       -2.81151177556344        0.47338614031989
C           24.55181466641528       -3.48399218398091        0.59478911630015
C           23.60845183904092       -2.55188959869212        0.35319002200942
C           24.31532190634496       -1.31431222474706        0.07312538594991
N           25.65474046945113       -1.51026878490602        0.14646878402284
H           22.58036205615315       -0.14417293789834       -0.21301116855625
H           22.47945542347506        2.42801080308934       -0.81111125145216
H           24.30653062111548        4.31560783333946       -1.31002340785559
H           26.31910964067757        0.70200118579848       -0.47309134574202
H           28.00585926798567        5.39667395509276        0.27164395734433
H           28.47709685331554        9.85456104542186        0.16703229900430
H           26.94982741953579        8.48549109938211       -2.50293969742474
H           25.96448341585798        6.78807398367757       -4.01303202677645
H           26.00466093224942        4.40220621399392       -3.38933181400502
H           29.66344673886519        4.33705531802497       -1.53538608965781
H           31.55614218055722        2.49353607548322       -1.03040079334587
H           31.61245913484932       -2.52985759452789        0.52437900363146
H           29.77976314943513       -4.40736524346607        1.02997145335884
H           27.78500081405279       -0.85411089345868       -0.07321176399674
H           28.12966223997205       -5.51529836419659       -0.72366877424930
H           28.15871757084105       -7.89652201235503       -0.07678416692289
H           27.10755128428036       -8.61242662293440        2.06163935744839
H           24.96357548173895       -6.50280182370798        5.39714713456648
H           26.04194362232388       -4.54660548987942        2.88987691702636
H           24.41553068923265       -4.52913535567388        0.82151023799134
H           22.53537592031584       -2.66195913017459        0.34940677618562
C           67.59298385820992        0.03233907977577       -0.28707018085571
C           67.01690657594601       -1.21189329196726       -0.06590946933076
C           67.70139800363701       -2.43674936666614        0.17244339588135
C           66.76462180492665       -3.41846025545149        0.33292246939601
C           65.47735821045205       -2.82634495122012        0.18779152944212
N           65.68044348300192       -1.49565112590745       -0.04272212565596
C           64.23016470369167       -3.45440573209035        0.27917304526384
C           64.23969148147138       -4.91914704794683        0.51884490627385
C           63.66584757178216       -5.44957664220544        1.67085409567390
C           63.67958159943267       -6.82493427496302        1.89894292996329
C           63.05763064389090       -7.32914471256390        3.14945844582031
O           63.12235824706668       -8.66209845775578        3.28018775056682
O           62.53942421944294       -6.62935664033063        3.98125192190418
C           64.26689481911978       -7.68227986587083        0.96858901596346
C           64.83693655605531       -7.15679632419035       -0.18026581418273
C           64.82693114304396       -5.78720815661416       -0.40457209638006
C           62.99580047029614       -2.81154612550709        0.16532883907811
C           61.71654698477905       -3.49746456460431        0.21068644703344
C           60.76896701305947       -2.54801193700467        0.06959404917433
N           62.80414517576780       -1.47637990529548       -0.02059742781700
C           61.47060180745014       -1.28629937345370       -0.07012495274550
C           60.79975279139521       -0.05581395484809       -0.22312667250067
C           61.40271742155785        1.20453192250245       -0.39844105089243
C           60.72595657125841        2.44617691683267       -0.52764269853942
C           61.66697943051838        3.42447934765627       -0.69177282347837
C           62.94855055826858        2.80716235944787       -0.67658170714808
N           62.73688847632221        1.46689662206138       -0.48876109103851
C           64.19405299657163        3.43171208459457       -0.80008091961819
C           64.18466143457937        4.89826198564622       -1.02406179080509
C           63.57157448667219        5.43941923627385       -2.15638991574408
C           63.56123345978510        6.81118558305165       -2.36787753840079
C           64.15924828083600        7.65976663987952       -1.45143272611265
C           64.77397847833774        7.13141779488607       -0.31521246578161
C           65.40195278200893        8.07405858422032        0.64462615788130
O           65.96350575190856        7.46948774248555        1.70139957185326
O           65.41913119491066        9.27062401541985        0.50843120634366
C           64.78686740930225        5.75429544188733       -0.10417208202430
C           65.42946269389766        2.78034103773181       -0.72428689682254
C           66.71503861237620        3.43852147101694       -0.90022167366113
C           67.65585070994757        2.48445596433882       -0.75241209561206
C           66.94619312978678        1.24287299986339       -0.49807614222724
N           65.60767852831572        1.45748593775267       -0.49728435194826
H           68.67812463143935        0.05134044882031       -0.29407661766353
H           68.77387791518485       -2.53868878250355        0.21914016598393
H           66.94341706869517       -4.46057771565242        0.54271013694932
H           64.93702091293018       -0.81688369783174       -0.16856232358619
H           63.21532974120957       -4.79701197594868        2.41066996352964
H           62.69640126092869       -8.91065546093594        4.11668976338363
H           64.27487767367086       -8.75077609806217        1.14649145236258
H           65.29196255566468       -7.81754438581125       -0.90950046637402
H           65.26320850480487       -5.38466540643772       -1.31202308081455
H           61.58401871339942       -4.56125506727325        0.32285641501730
H           59.69715665539514       -2.66380014515938        0.05192947582611
H           59.65528316610603        2.56656528607473       -0.49181165122983
H           61.49208130754376        4.48219414318477       -0.80253510849033
H           63.47691365585806        0.77641574966459       -0.41634913069082
H           63.11514746296353        4.77633025065422       -2.88288346704312
H           63.08515436036634        7.21588023379379       -3.25369931692336
H           64.15937205916970        8.73359202946238       -1.60055984165371
H           66.34893978474324        8.14968097255681        2.27715460824975
H           65.25212912946562        5.34790758468008        0.78599992021177
H           66.85345302866412        4.48518010838225       -1.11862496088851
H           68.72879547806866        2.57883515044128       -0.81183779711634
C           31.86571912149245        0.01032621085655       -0.24550351821775
C           33.09041800554353        0.01986795146632       -0.22845000967131
C           34.43233094189677        0.03010845044057       -0.20466346745400
C           35.66291935223364        0.03220476698307       -0.17392161698996
C           36.99977408399167        0.03165952858951       -0.13814499449444
C           38.23016886945204        0.02766684512146       -0.09776419941972
C           39.57142485892035        0.02183805727479       -0.05683349687901
C           40.79586629125781        0.01232687623511       -0.01891915971754
C           50.46485683057515       -0.02116013417602        0.02012040171603
C           51.68960863457365       -0.03158321840576       -0.00912902777214
C           53.03103474282285       -0.03950103815338       -0.03962580848101
C           54.26157155775124       -0.05266294901699       -0.07281398035414
C           55.59829506623664       -0.06152375355221       -0.10694354894982
C           56.82877097343027       -0.06998723393680       -0.13956042846137
C           58.17043100762110       -0.07059793274775       -0.17131204168402
C           59.39500178147402       -0.07093769540102       -0.19814177692329
C           42.19940990106949        0.00455142089714        0.01648737302243
C           42.82908091702065        1.24979965435247        0.20796740776729
C           42.18367869964569        2.50423792624442        0.35909475629685
C           43.14987485520050        3.45409934294664        0.54946674386787
C           44.41391433451503        2.80424301099867        0.52551401822570
N           44.16947318450723        1.47495903824081        0.30735723005508
C           45.67409442454522        3.39636554209774        0.67249246467071
C           45.68825343414956        4.85616454862406        0.94357050284750
C           46.28746226427230        5.73652482393963        0.04733519314661
C           46.30148878418917        7.10675102982355        0.30490822248207
C           46.95312128869815        7.99488331925351       -0.69074803899281
O           46.92107455106338        9.29218892570816       -0.35324657561035
O           47.46764377117284        7.61154661950897       -1.70984523361187
C           45.71568993085425        7.60577756356688        1.46817151980701
C           45.11836875498793        6.73103071443388        2.36205330304815
C           45.10133894802647        5.36767019429475        2.10334100506947
C           46.89913927810055        2.73450429425493        0.58222323006559
C           48.18546567158071        3.37954300211261        0.77859603220626
C           49.12244422344528        2.42690271967643        0.59483390769200
N           47.07551437007593        1.41184171862822        0.31069507862833
C           48.40685771019724        1.20055295829283        0.30181972408140
C           49.06111939370882       -0.02099491325912        0.04388947772699
C           48.43166683436629       -1.25834995737711       -0.19419285381381
C           49.07803577428880       -2.49101193310352       -0.46942491853149
C           48.11208129626742       -3.44798719250155       -0.61987709035723
C           46.84698320691332       -2.82666552614181       -0.43390405140906
N           47.09091895281398       -1.50201491628420       -0.18852162681947
C           45.58643185163327       -3.43207338593191       -0.50545484572876
C           45.57394306726307       -4.89674571709646       -0.74759730258956
C           44.96922286862586       -5.42091129812684       -1.89227361122087
C           44.96138928561054       -6.78934843935442       -2.12400844056005
C           45.55519749422749       -7.65110889844475       -1.21705520029556
C           46.16255105510356       -7.13955918713786       -0.06932475456510
C           46.79049629564009       -8.09497894189751        0.87782417310940
O           47.35927015355152       -7.50381003331731        1.93849276790496
O           46.80384607114517       -9.28985546909601        0.72785395883621
C           46.17165486380573       -5.76566480487668        0.16280341872128
C           44.36144287778826       -2.77664500574540       -0.37339302806281
C           43.07498217199140       -3.44934572437735       -0.40505550091648
C           42.13791314799978       -2.48878559712860       -0.26604518602944
C           42.85366172040907       -1.23491837498490       -0.13651649419398
N           44.18501254184928       -1.43858544231813       -0.19264155975464
H           41.11659498244062        2.65273282207590        0.32240754822528
H           43.00228958595314        4.51320474209508        0.68396005832485
H           44.88856302595681        0.76409524056440        0.22459716528187
H           46.73754096575657        5.36750078393705       -0.86773543332082
H           47.36518868085626        9.80270234868680       -1.04969756618611
H           45.72998570159399        8.67034717026655        1.66785964882755
H           44.66354676164093        7.11149156527342        3.26964517468874
H           44.64377067479167        4.68788554833520        2.81349391381545
H           48.32984616130877        4.41712102532745        1.03216706923429
H           50.19517543839966        2.51632596621929        0.65573893983537
H           50.14563647253935       -2.61971196437766       -0.54470072673947
H           48.26108696114478       -4.49035197358099       -0.84944728117857
H           46.37164941980781       -0.80368617098098       -0.03291507881332
H           44.51658571475459       -4.74675541589047       -2.61069082428180
H           44.49140342805390       -7.18119996004906       -3.01880420613600
H           45.55848747441323       -8.72247713970106       -1.38290819333384
H           47.74418670053799       -8.19186372737664        2.50533868145864
H           46.63088675499609       -5.37272392328450        1.06221323024807
H           42.93017591492126       -4.51271697529678       -0.50608555854527
H           41.06508390212797       -2.59318482384246       -0.24008298792695
