242
 energy: -427.414826591498 gnorm: 0.000387967830 xtb: 6.5.1 (b24c23e)
Zn          46.65248456377566       -0.02249397359553       -0.02302990281403
C           43.24294981230218       -0.06017131376104       -0.05506122297647
C           43.87472500439360       -1.29675625576700        0.00307533842405
C           43.20255487600983       -2.56242695016879        0.09403243970891
C           44.16299819116408       -3.51911864629836        0.14735940438814
C           45.43498941165940       -2.84974207564300        0.07867069990130
N           45.22436691547021       -1.50389417361531        0.00005095901446
C           46.68701615803146       -3.47644169553403        0.11318821354350
C           46.70298946187722       -4.95926357986955        0.18364706803218
C           46.14127503695236       -5.72632058995751       -0.83740704666194
C           46.15710707558036       -7.11137653087250       -0.77470347703620
C           46.73362108224593       -7.74689842036396        0.32232830975001
O           46.76776010483677       -9.10128758006477        0.42564319863549
C           47.29530123323367       -6.99309462596870        1.35101964091708
C           47.28056373237908       -5.61153484385234        1.27587385988329
C           47.92479875669835       -2.82381475184047        0.09035072261789
C           49.20556085029025       -3.47483692819776        0.06984653533489
C           50.15016873913387       -2.50024947800987        0.03934133519708
N           48.11617502222101       -1.46809842045983        0.05750728410146
C           49.45772861876508       -1.24530946606237        0.03283408063419
C           50.08639705237724        0.01552772595988        0.00274176727270
C           49.43123878219265        1.26254665394347       -0.03238416970950
C           50.09705392881957        2.52999850197304       -0.10142491305163
C           49.13187557327635        3.48331439269807       -0.15229514156264
C           47.86484195923011        2.80721269580660       -0.10511223047603
N           48.08509214835045        1.45712784972760       -0.03810622721793
C           46.61337748783655        3.43136002654534       -0.15499294598806
C           46.59612179556507        4.91488049923045       -0.21476812558172
C           47.13207356593373        5.67574533467689        0.82701776274440
C           47.11667035345228        7.05849794348131        0.77642782183698
C           46.56649600472036        7.70334635015181       -0.32963174097553
O           46.57121634843256        9.06198477555579       -0.34952618336368
C           46.03065921408373        6.95851162065800       -1.37739646566530
C           46.04449670026192        5.57351707225840       -1.31400137815174
C           45.37545216594528        2.77647780636152       -0.15415584683909
C           44.08933327934494        3.42194360538411       -0.15474459445439
C           43.14940132516760        2.44395544332459       -0.13045065522287
C           43.84839212299284        1.18980071981337       -0.10589982791538
N           45.19345379600756        1.42467877586252       -0.11878702843978
H           42.15731597416588       -0.07132698095597       -0.04725502861745
H           42.13166964351895       -2.69057857107325        0.12174826866477
H           44.02623954472042       -4.58482597985674        0.23896071097613
H           45.70374627352447       -5.23345406503835       -1.69862299357437
H           45.72487422458192       -7.70234469766963       -1.57520317415385
H           46.35030707170694       -9.52252757003203       -0.33758318734887
H           47.73660455715883       -7.50037364590410        2.20004228060063
H           47.70662140990854       -5.02518732080748        2.08238295471168
H           49.36101863118408       -4.54170711119583        0.06443437650565
H           51.22240167047664       -2.61383893155802        0.01715346482108
H           51.16690476230817        2.66509205715922       -0.11756558207263
H           49.26495838601621        4.55041420182358       -0.22970271731843
H           47.54944725576966        5.17447616738443        1.69321300176862
H           47.52579697880987        7.65042210560367        1.58586192071310
H           46.16626491055190        9.40280938153686       -1.15826708513336
H           45.60705496976002        7.46470405174474       -2.23831826842837
H           45.63830934016711        4.99489765677821       -2.13631612605275
H           43.93011219724243        4.48847479489491       -0.15824220010080
H           42.07588239024561        2.55102227461914       -0.12144773609046
Zn          87.09444344121864       -0.00103583787801       -0.00424968479244
C           90.50355672899219        0.04296099051532       -0.05491962118031
C           89.86750436957874        1.27445895853455       -0.15758053322728
C           90.53540441709644        2.54281818264020       -0.24295827243662
C           89.57166050949924        3.49568135998927       -0.30505528898132
C           88.30180892723173        2.81993695199521       -0.26687120056771
N           88.51705738839158        1.47588923538003       -0.17222563393210
C           87.04814248869502        3.44384234548621       -0.28769832187558
C           87.02690732315293        4.92292223568933       -0.41527659493505
C           87.55595294576669        5.54417928673871       -1.54691390406548
C           87.52959882324326        6.92443510978697       -1.67594853073196
C           86.97545526158626        7.70257288446049       -0.66246764501854
O           86.93035312486943        9.05790359320770       -0.74735143289326
C           86.44850714187162        7.09555210939395        0.47584643131073
C           86.47338088817017        5.71693190825770        0.59210475573588
C           85.81288255575868        2.79206980274325       -0.20071153425864
C           84.52923065330413        3.43433192510381       -0.26737553476009
C           83.58832000034779        2.46088317585812       -0.16824080828132
N           85.62649857702343        1.44112227265495       -0.07400715721542
C           84.28568930120805        1.21416890727292       -0.05035253781200
C           83.66119493086266       -0.04582300104713        0.04076443900249
C           84.32008311089254       -1.28867448461610        0.12008371149429
C           83.65869053001792       -2.55867219019071        0.18388732142205
C           84.62715564512467       -3.50768460847366        0.25116370287709
C           85.89159707988871       -2.82523946573432        0.23668837669135
N           85.66680972570683       -1.47730128947536        0.14701054312795
C           87.14518902988330       -3.44564778764988        0.28049383298034
C           87.16611903063735       -4.92418937123314        0.41428069998079
C           86.61558500815595       -5.54248899854105        1.53964550546305
C           86.63524174255734       -6.91951301839683        1.67374827667051
C           87.20428778578304       -7.70308316399120        0.67168966414087
O           87.20382553811497       -9.05224372122443        0.83288585009062
C           87.75404611014625       -7.10163049445237       -0.45779703552981
C           87.73593573074251       -5.72052547423532       -0.57940189374297
C           88.38116891725181       -2.79061495734138        0.21206723010091
C           89.66945508083464       -3.42541817768514        0.30159907659845
C           90.60592424864471       -2.44883346912755        0.20210022674758
C           89.90256266384823       -1.20486624533437        0.06099701788090
N           88.55839058772037       -1.44464830361754        0.07483672469022
H           91.58916818570999        0.05847368478496       -0.05313494708385
H           91.60600839764146        2.67620747769032       -0.24586771645749
H           89.70463098592640        4.56452623445674       -0.35758126747678
H           87.97546706344640        4.93893998531098       -2.34301508510113
H           87.93542699778898        7.40105112846981       -2.56195493598507
H           87.32085050515344        9.37130177536795       -1.57410026318415
H           86.02490813430646        7.71321366598936        1.25811001157063
H           86.07372249853987        5.24571625522054        1.48316148309930
H           84.36884018352652        4.49342780612702       -0.38953758552508
H           82.51544149389171        2.56940490273530       -0.18182716169279
H           82.58943238817892       -2.69888174197311        0.17205583534123
H           84.49833225766604       -4.57731482631292        0.29270022199813
H           86.18334675754888       -4.93236488569122        2.32494908740725
H           86.21512424372096       -7.40041245147844        2.54849268683529
H           87.62120988887007       -9.49586834950153        0.08243790130289
H           88.19199365886433       -7.71588856408128       -1.23737563526491
H           88.15308048999341       -5.25465617883749       -1.46536209979948
H           89.83250832441863       -4.48271368867662        0.43720635258117
H           91.67975434542802       -2.54965272267398        0.22896062376076
C           52.71515928243539        0.03644938296638       -0.01420750177842
C           51.49317988201586        0.02898008386632       -0.00611082012120
C           54.06543854392189        0.04269228448647       -0.02396266545203
C           55.28756881488130        0.04635358828598       -0.03205457400552
C           66.20034408511714        0.00689229260698       -0.05954908660241
C           64.97761600267680        0.01763086123342       -0.05699496450148
C           67.54910151212523       -0.00311093565215       -0.05977783772685
C           68.77171763992024       -0.01281293274256       -0.05948670648009
C           79.68229190148648       -0.06497685291234        0.02632594755170
C           78.46023136784667       -0.05929789442424        0.01677470563457
C           81.03251066861674       -0.06602361932035        0.03438088721627
C           82.25449522872321       -0.06208861587488        0.03854543657550
Zn          60.13329091134585        0.03911203268944       -0.05443278472262
C           56.69382442826885        0.04646964853759       -0.04170222282772
C           57.34178682681504        1.12123318945988        0.59957797508701
C           56.66878501179371        2.18382080386444        1.28567460271564
C           57.62848420851994        3.00947329355699        1.77697595983954
C           58.89774967713252        2.46330927736102        1.38598988327276
N           58.68636771713059        1.31080664963744        0.67714296132257
C           60.14615758241169        3.00995479912046        1.70430458535330
C           60.15406463906582        4.28383650837540        2.46711756175665
C           60.73341730488366        4.34619380127440        3.73690613668225
C           60.74415127318039        5.52907530340648        4.45459084813144
C           60.17708591956092        6.67657473490930        3.90347094315771
O           60.20900243434340        7.82253267184619        4.63243512107983
C           59.59820135881275        6.63080432179222        2.63750459793847
C           59.58587842916203        5.43886486819254        1.92930618480620
C           61.38957206688765        2.46109301379323        1.37085459069171
C           62.66369890004069        3.05852849882066        1.65681127308609
C           63.61630476528857        2.22403956571878        1.16645695393488
N           61.59109355135400        1.28409334237333        0.70014588084092
C           62.93391484967999        1.11537180916182        0.56862723613688
C           63.57305928364079        0.02528848076131       -0.05673406259403
C           62.92413283378966       -1.05842317191234       -0.68322285697181
C           63.59691517758905       -2.17125728837660       -1.28425583291672
C           62.63716348665952       -2.99581320540020       -1.77737407488359
C           61.36831545770421       -2.38842915182861       -1.48906887082798
N           61.57996061897143       -1.21508373485821       -0.81512187661678
C           60.12025760501369       -2.92712286904296       -1.82135365910668
C           60.11742448031242       -4.19873303109642       -2.58794139884714
C           59.54453106867027       -5.35165881350253       -2.05060281931091
C           59.54689282679061       -6.54194663224082       -2.76161477825715
C           60.12050472481226       -6.58811075920159       -4.02994829120182
O           60.14233439314520       -7.73261105668806       -4.76177621384868
C           60.69232640195805       -5.44275719720642       -4.58056881637155
C           60.69163465557852       -4.26151193946378       -3.85999335857558
C           58.87662748827989       -2.37424996527853       -1.49526788145616
C           57.60221086997392       -2.91348493676658       -1.87891462379399
C           56.64969465071460       -2.08648976776435       -1.37596326708216
C           57.33232470008657       -1.02900818835489       -0.69146596147387
N           58.67547296681516       -1.22332015120850       -0.78090453289398
H           55.59867138440433        2.27542843763050        1.38323998630292
H           57.48973457629297        3.90276676263333        2.36447758597703
H           61.16418635336642        3.45057420395228        4.17065322038971
H           61.18693114100817        5.57801973977555        5.44175964723102
H           59.78572861046881        8.55172182794604        4.15978014384430
H           59.16162024976983        7.52756544210306        2.21084704866044
H           59.14619119059295        5.40803930869702        0.93852207453653
H           62.81040007106546        4.00257409550773        2.15640089460412
H           64.68736895067843        2.34632801023497        1.19671160580098
H           64.66683860602569       -2.30299375158768       -1.31454681524621
H           62.77558733625784       -3.93946209658717       -2.28006826059169
H           59.10907258490470       -5.32043573361661       -1.05799498992093
H           59.10664101376192       -7.43705562303222       -2.33531373160244
H           59.71987427775339       -8.46099920154262       -4.28715016813593
H           61.13103748063012       -5.49211152897861       -5.56951999591569
H           61.12660541718361       -3.36766032772660       -4.29312593207621
H           57.45527331799602       -3.80356234444420       -2.46931404536223
H           55.57850218775259       -2.17383855281907       -1.46524409693013
Zn          73.61528176265251       -0.03325604155766       -0.02798892681646
C           70.17622442485489       -0.01900159900130       -0.05307178452445
C           70.82011171780547        1.04522405044767        0.61111576054976
C           70.14212953425152        2.10122522833473        1.30213766162558
C           71.09809170910954        2.92780647546444        1.79931126834142
C           72.36981217804956        2.38865101056819        1.40690286841411
N           72.16351639893959        1.23740069315052        0.69404775485313
C           73.61540281674584        2.94393879928726        1.72051349108713
C           73.61481681804274        4.22301088499230        2.47432370927678
C           74.19661074659274        4.30159365975667        3.74201167421988
C           74.19311252310443        5.48943860085167        4.45166496523040
C           73.60928947887318        6.62555637782962        3.89444461638857
O           73.62568895835386        7.77619254137024        4.61642450553845
C           73.02930903797551        6.56399523430041        2.62962547180584
C           73.03116799925877        5.36724568330461        1.92969674299889
C           74.86124892810457        2.40011905460233        1.38729103360829
C           76.13281787202163        3.00625340458043        1.66632137545285
C           77.08893334582976        2.16979720172503        1.18641175753507
N           75.06736986684859        1.21726759191640        0.72901129214714
C           76.41127206525772        1.05100081797943        0.60176974166346
C           77.05412870178422       -0.05164437865495        0.00413873127781
C           76.41037186016965       -1.14548842072405       -0.60833576539524
C           77.08688139671000       -2.26753175262246       -1.18800371731713
C           76.13111957124532       -3.08962839009482       -1.69275554132946
C           74.86098731740958       -2.47197465966531       -1.43274901510588
N           75.06733158094731       -1.29655496698463       -0.76150338528550
C           73.61603735440451       -3.00020779415260       -1.79375891357511
C           73.61911472350741       -4.26753684264390       -2.56712062193155
C           73.01659157666016       -5.41673483237405       -2.05481334753091
C           73.02010333689746       -6.60073916504769       -2.77629446664239
C           73.62483366368924       -6.64431652446989       -4.03016571779517
O           73.64757363812031       -7.78202885074628       -4.77230914868993
C           74.22795020432704       -5.50301941215892       -4.55515740244389
C           74.22563377747757       -4.32821372957669       -3.82428197202294
C           72.37029454986596       -2.43714482339198       -1.49481802277989
C           71.09988980070979       -2.96277775736716       -1.90941201905739
C           70.14362369025899       -2.13231023955451       -1.41921759116046
C           70.82027069374391       -1.08642636216571       -0.71173047087138
N           72.16315687551516       -1.28922893854037       -0.77676990128006
H           69.07155517656678        2.18914830892248        1.39781556429843
H           70.95502767574857        3.81741385817118        2.39133112101743
H           74.63971955681296        3.41467222045293        4.18114799495677
H           74.63683384821974        5.55086854047724        5.43772192013135
H           73.19092069770919        8.49610896106930        4.14000698640956
H           72.58002630283879        7.45199288815139        2.19782879298350
H           72.58985825279308        5.32373464292742        0.94007235814350
H           76.27520335282863        3.95651699604276        2.15527058878332
H           78.15949205052227        2.29647581428036        1.21615346121667
H           78.15642938901786       -2.40537596485417       -1.19893224108337
H           76.27270991707935       -4.03763066923146       -2.18631992325629
H           72.55630892164399       -5.38798392991253       -1.07339933799761
H           72.55595940373480       -7.49286965828900       -2.36963023157060
H           73.19894717696555       -8.50727100676304       -4.31755157282878
H           74.69122769358574       -5.55020280907659       -5.53294103734587
H           74.68408229477593       -3.43701627236982       -4.23821034553750
H           70.95796296783391       -3.84690410441405       -2.50988144955168
H           69.07379099233022       -2.21050070288081       -1.53069036720625
