78
 energy: -141.503675184574 gnorm: 0.000700678632 xtb: 6.5.1 (b24c23e)
Co           6.56723480505570       -0.00852907010852        0.02778344935600
C            3.32984144094276       -0.61293726706175        0.73990506258047
C            3.93001288534096       -1.36211701452066       -0.25130970303343
C            3.24590694207283       -2.34636268487880       -1.03708402870757
C            4.11065025426139       -2.74719461802394       -1.99891976777477
C            5.34071307041125       -2.05062281631966       -1.76345881726122
N            5.21302943041273       -1.19278092048765       -0.70299812102427
C            6.51772688933190       -2.31677352115060       -2.43312297911366
C            7.73967076326107       -1.83261134108914       -2.01760274028998
C            8.99646912076678       -2.30637248405673       -2.51213702638569
C            9.95697345496597       -1.71955896978919       -1.75765181972291
N            7.93300471273288       -0.92689069240732       -1.00176358775527
C            9.28657170663831       -0.84564782274091       -0.84436815208013
C            9.95416703029201        0.06544430867317       -0.01938496839722
C            9.26703614322177        1.09091702137348        0.63825447874317
C            9.91511502336139        2.20675240202619        1.25589914307690
C            8.93607289018508        3.05367604872853        1.65635010262984
C            7.69172340554021        2.42433049886561        1.33307585288744
N            7.91030267054619        1.22921285915088        0.68930530164806
C            6.46315967809070        2.89610008540338        1.74259578105429
C            5.30692831853820        2.14727414061471        1.65515467018282
C            4.07956738108678        2.48842164348992        2.31140538893327
C            3.23297826294114        1.44930854389759        2.11896493284577
C            3.92431804998657        0.50095578256161        1.29605822252716
N            5.19802258155322        0.93331534178179        1.03041914077201
H            2.30912329550719       -0.84716199661872        1.01838469563706
H            2.22565397964002       -2.65563380973996       -0.87350065166707
H            3.95969840866079       -3.46872291907010       -2.78626614806926
H            6.49523861985736       -3.02058482370096       -3.25686371461517
H            9.10810854800853       -3.01886087859102       -3.31392276506743
H           11.02741889857649       -1.83332787404945       -1.81942558020765
H           10.98390585924778        2.32199553879937        1.33993236430798
H            9.02793305206253        4.00546475496256        2.15494994916857
H            6.42133359081236        3.85296762467349        2.24958302870776
H            3.91760579436244        3.39903835832598        2.86623268052583
H            2.21960446941088        1.32889244637189        2.46805377794198
Co          22.49735110032418       -0.00931451450223        0.01642010351021
C           25.71669158168189       -0.06659917691150        0.99556285141445
C           25.12539663603068        1.15973125389942        0.77034569126707
C           25.81370553081221        2.41247704074377        0.87610964994994
C           24.96680194976251        3.36289912028388        0.41431116068563
C           23.74157823547131        2.69757948922279        0.08298913874027
N           23.85504553400338        1.34852131445897        0.29098157449699
C           22.57949580526961        3.35157770604162       -0.27388156095059
C           21.35378236326956        2.72250435092209       -0.32144274053272
C           20.10303555411742        3.41344648402684       -0.40525112439085
C           19.13276436037464        2.48204028570853       -0.23901840553695
N           21.14714749354120        1.37280850062416       -0.16186921210865
C           19.79198910164986        1.21829925833011       -0.11495705776119
C           19.11570963485593       -0.00619065074199       -0.09382545884857
C           19.79493966351151       -1.21506287187441       -0.27899911123363
C           19.13898641405522       -2.45429381921255       -0.56317117640024
C           20.11193281130779       -3.35614027592287       -0.83972154715829
C           21.36083222527632       -2.67922877116467       -0.66385448326329
N           21.15063587769872       -1.36015509413861       -0.33854727543055
C           22.58692670774101       -3.30890192811346       -0.68562388741732
C           23.74570602049531       -2.70341327685516       -0.24271691037927
C           24.96919625166519       -3.40379141648107        0.01430356237229
C           25.81310020691521       -2.51525896395227        0.59063204669729
C           25.12516045439459       -1.25845337080837        0.62991009219764
N           23.85688834013293       -1.38912884043395        0.12615063519454
H           26.73068766823118       -0.08880222524232        1.37719436537032
H           26.82538329023578        2.52399817463218        1.23295469547577
H           25.12678532706827        4.42582066985467        0.32540582056287
H           22.61412256498758        4.42529662659326       -0.41646694395033
H           20.00119991550494        4.47830018686611       -0.54193710561132
H           18.06288127158180        2.61612937251461       -0.22924026864616
H           18.06942028557456       -2.59054554588288       -0.57300105446118
H           20.01305153975783       -4.39602030019827       -1.10768268717426
H           22.62364878126851       -4.35681382664108       -0.95932044459242
H           25.13009735621941       -4.44867187136109       -0.19928944002401
H           26.82272766425478       -2.66882467607020        0.93758232040119
C           15.15016709615000       -0.02457820174078        0.09578422045429
C           13.92146715956135       -0.02160906834367        0.10869029252659
C           12.57798364756711       -0.00022318579406        0.09037227666323
C           11.35501464684786        0.03010284861225        0.04375682358127
C           16.49331910679096       -0.02409274783064        0.05622636747659
C           17.71526639625216       -0.01277293844127       -0.01847324567056
