118
 energy: -191.732185494094 gnorm: 0.000306795780 xtb: 6.5.1 (b24c23e)
C           10.63633411277771       -0.11153370999851        0.03824326534221
C           11.24218496099063       -1.18951778868083        0.67074677001922
C           10.58698327377941       -2.28938659757728        1.29250418920409
C           11.54642647339911       -3.11544361408910        1.80680865944246
C           12.81904529682412       -2.54298113012431        1.52232013650304
N           12.58456543427472       -1.38962193495113        0.82847253307531
C           14.07970340085442       -3.05099579923233        1.85532262660988
C           15.29807325053740       -2.46519645595111        1.50404532145385
C           16.59324746386295       -2.98536687175678        1.90365624320963
C           17.51786561974185       -2.15772772895530        1.37386351246080
N           15.45785710368775       -1.33283199360488        0.76467174900600
C           16.78633590213667       -1.12750829750143        0.66249120806985
C           17.42720064909660       -0.07705778355714       -0.02553241207438
C           16.79467207393773        0.98787725524829       -0.69506791988596
C           17.44214398444792        2.03702840465927       -1.39969949893571
C           16.47831306037174        2.87679693872889       -1.88537996647499
C           15.21155514033575        2.36829875350839       -1.48568651984219
C           13.95236565990345        2.90566056341224       -1.77264431269017
C           13.92899642044770        4.18258763859084       -2.52747893907357
C           13.32220688075481        4.25324922307604       -3.78220789382807
C           13.30557938160937        5.44767248344307       -4.48656572514084
C           13.88877936658170        6.58567311381717       -3.94599089092959
C           14.49225599503161        6.52416071540868       -2.69728595015276
C           14.51598843901130        5.33018782106937       -1.99232745193519
C           12.73340671234408        2.32896320164072       -1.40214519679077
C           11.43211859487994        2.91983211735549       -1.67309462215407
C           10.51415156117002        2.06896561141271       -1.17184087819977
C           11.25369094194001        0.96654232365813       -0.58268632327118
N           12.58668577976166        1.16051570439332       -0.73322945965974
N           15.45459494219237        1.22120029526910       -0.77710769127591
C           14.10287214741499       -4.30803838857647        2.64385286807127
C           13.52623226537240       -4.35580805030097        3.91388399459957
C           13.54980195091797       -5.53010334613219        4.65130004948911
C           14.14317030471802       -6.67100826912075        4.12832881365029
C           14.71568681061006       -6.63254086139018        2.86412423131105
C           14.69858924941072       -5.45879766952906        2.12580763413232
H            9.55095861616244       -0.11745795119861        0.03980292948767
H            9.51742981143335       -2.42185828553833        1.33019002374747
H           11.39263512806599       -4.04519178531349        2.33020313441746
H           13.31193677275309       -0.77421790571810        0.48006033365060
H           16.75180738789669       -3.85747804283782        2.51710192197165
H           18.59213227517440       -2.21173820567187        1.45039640615191
H           18.50989966928343        2.12673907936887       -1.51855990806717
H           16.62763158568900        3.76499262858434       -2.47738223027153
H           12.87797042042138        3.36228510330163       -4.21177798781882
H           12.83619559033272        5.48963285412130       -5.46320263164744
H           13.87308997916672        7.51915010075549       -4.49705665905739
H           14.94620037486955        7.41087913760336       -2.26878850709692
H           14.97631862217359        5.28748924616426       -1.01137106485751
H           11.26886292427157        3.86295466339512       -2.16939412208596
H            9.43885684952393        2.15619680573281       -1.17587696600873
H           14.73063287547177        0.63250362078420       -0.37847877263954
H           13.07438917581097       -3.46209751987671        4.33005519347029
H           13.10355474634635       -5.55384060115596        5.63941723255497
H           14.15922558996454       -7.58879715651622        4.70514844218424
H           15.17794865642312       -7.52180702304249        2.45000962035975
H           15.13545102581287       -5.43392783180614        1.13368718237656
C           30.82334267875387        0.08298026924665       -0.08476496177562
C           30.21731872799339        1.11507790873326       -0.78950718065735
C           30.87227020590720        2.14729084960546       -1.51831091649016
C           29.91260219716016        2.96462820208094       -2.04594771137829
C           28.64009120644011        2.46230999890983       -1.65020830378170
N           28.87485940073793        1.34249589820430       -0.90353843267197
C           27.37935260361570        2.97992073829904       -1.96774943307244
C           26.16100442760798        2.41196990160334       -1.58830909785384
C           24.86582049802508        2.99514952619414       -1.88855879464394
C           23.94120387416931        2.16286981395245       -1.36609388510035
N           26.00122062437668        1.26015910930105       -0.87959996539888
C           24.67274993303287        1.08008508273188       -0.73761992830840
C           24.03182558191853        0.00973414316992       -0.08103208712394
C           24.66446593567551       -1.05011890527847        0.59639914476938
C           24.01728610165103       -2.13511221068132        1.24476485807776
C           24.98137208596775       -2.93259017436170        1.79669467674829
C           26.24799288187901       -2.35404102888743        1.50693132778976
C           27.50726805840577       -2.84291227718994        1.87006310483735
C           27.53059365028126       -4.07047961729796        2.70281415300008
C           28.13601243083375       -5.23588358043572        2.23081118216089
C           28.15228820853427       -6.38257450196857        3.01048628992715
C           27.57016871631712       -6.37874900537055        4.27084673336952
C           26.96814658377217       -5.22264658730561        4.74857897417678
C           26.94471483665057       -4.07562163294126        3.96955608356496
C           28.72622064643187       -2.26185742824092        1.50650391065517
C           30.02748590707672       -2.75937474980320        1.92492125881211
C           30.94549476726050       -1.94271510426028        1.36974790437630
C           30.20599777337580       -0.93905410289190        0.62464968517713
N           28.87299365523282       -1.15798469744334        0.73567568930412
N           26.00462512472310       -1.22373966703472        0.77197938125710
C           27.35623498041692        4.22989274991278       -2.76748504605334
C           27.93160208460231        5.39884809421718       -2.26723002282320
C           27.90832217166315        6.56734041292169       -3.01380292422402
C           27.31658123195133        6.58169392478767       -4.26954096782899
C           26.74531889194868        5.42198317060270       -4.77569054587680
C           26.76204430176502        4.25291907691877       -4.02996225482391
H           31.90871585355046        0.08722202326021       -0.08916700502853
H           31.94181418161858        2.23847669203558       -1.62162527678814
H           30.06615470451208        3.83501783820656       -2.66309320627449
H           28.14770418112028        0.76432273385449       -0.49593694330371
H           24.70731573330617        3.92192640472125       -2.41581123116737
H           22.86692568693582        2.25499522494672       -1.38239002989694
H           22.94955586630344       -2.28098505270539        1.27553594489459
H           24.83234620770474       -3.84699715979571        2.34742486198644
H           28.57943332604617       -5.24457074397317        1.24136899101170
H           28.62052970497704       -7.28416691804938        2.63130146642242
H           27.58555726496293       -7.27546504724983        4.87991218095134
H           26.51506556290391       -5.21306873804515        5.73375411174781
H           26.48543948236012       -3.16983173337623        4.34983658007279
H           30.19066979869399       -3.61108825792684        2.56554857741483
H           32.02078932841636       -1.98369541499902        1.44686182667944
H           26.72831762645764       -0.61183656456493        0.40945099354325
H           28.38230636259687        5.39337486642406       -1.28086424313976
H           28.35363472428887        7.47106231007412       -2.61247813118817
H           27.30081539084317        7.49536199466307       -4.85287252945100
H           26.28426219198318        5.42736063994980       -5.75720629323302
H           26.32607119112929        3.34510542742197       -4.43192742581956
C           20.05498085798000       -0.05457240251196       -0.06479340861470
C           18.83295984871425       -0.07175277323863       -0.04573662433348
C           21.40412528112213       -0.03775733019219       -0.07658356737524
C           22.62607897323032       -0.01089142379572       -0.08500724134884
