242
 energy: -442.235949544403 gnorm: 0.000767320981 xtb: 6.5.1 (b24c23e)
Cu          48.41278766261160       -0.31376320251921       -0.20662365382213
C           44.99760795089473       -0.26607587288762       -0.17365585200990
C           45.64277226481018        0.60034314908088        0.69551659164980
C           44.98255206218098        1.50343653448132        1.59414318572293
C           45.95372949009406        2.17277858474019        2.26510164819847
C           47.21173767494501        1.68144715703972        1.78057208991286
N           46.99797558290624        0.73075650585521        0.83154521267786
C           48.46760661957192        2.12157937256120        2.22748774020644
C           48.48838381908951        3.12632296465521        3.22080317736334
C           48.49906992842671        3.99182574134059        4.07121456786662
C           48.51019360471189        5.00348784193847        5.05866574522623
C           49.71188586630181        5.51180366259575        5.56559662240705
C           49.66660187247857        6.50172560537500        6.53100298250579
N           48.52934013352677        7.00131720047057        7.00820299792069
C           47.38265288287276        6.52312380090576        6.53166955090203
C           47.31845566515790        5.53425111101931        5.56632439937709
C           49.70217330926693        1.64152574489064        1.76373916886348
C           50.97746500033688        2.09428170056932        2.23365838837853
C           51.92107254831928        1.39763456876801        1.54901392885582
N           49.87931829798013        0.68387506605848        0.80815418765635
C           51.22502606831572        0.51804994647323        0.65842116102854
C           51.84959668574736       -0.36916040034140       -0.23250431017070
C           51.18289519635170       -1.23320915635278       -1.11603654112210
C           51.83647455397352       -2.13121942645897       -2.02035382436941
C           50.86060640815451       -2.79364624501942       -2.69349762198006
C           49.60797358515791       -2.30194043546089       -2.20241641496533
N           49.83042978494166       -1.35444808217871       -1.24618137261919
C           48.35190147816806       -2.74230556810564       -2.64747120561566
C           48.32812778109587       -3.74262352654475       -3.64513217306734
C           48.30810470996260       -4.60436348937181       -4.49916250562590
C           48.28814221518198       -5.61152981458802       -5.49101861361810
C           49.47508928648574       -6.14396949783118       -6.00796982821397
C           49.40186062088703       -7.12991882629314       -6.97566322518446
N           48.25077878269277       -7.60372063519557       -7.44596599116099
C           47.11800838321254       -7.10256399377619       -6.95982058086621
C           47.08175267146787       -6.11530874578791       -5.99132911629480
C           47.11770013040735       -2.26857703936213       -2.17574926114543
C           45.83737268897396       -2.72374214385988       -2.63637922277185
C           44.89848026447744       -2.03078143098962       -1.94375305308421
C           45.60104728864097       -1.14869566132404       -1.05640501684551
N           46.94912421766800       -1.31567584244631       -1.21985445890341
H           43.91258225289976       -0.25129566579282       -0.16254867833625
H           43.91265239508085        1.60218113212758        1.68873715236388
H           45.84183213297315        2.93234684734077        3.02249892873666
H           50.66083391964716        5.13356036013925        5.20501879191148
H           50.58367315116114        6.91444288666983        6.94156062234672
H           46.47361609245664        6.95286394109696        6.94266128665131
H           46.36240357784294        5.17377751812623        5.20622515735448
H           51.12155966921706        2.84852880048207        2.99073464800047
H           52.99401384992840        1.46607050933007        1.63147549991318
H           52.90512420360913       -2.23459974644735       -2.11971644618059
H           50.96895799791054       -3.54885715941562       -3.45554628363625
H           50.43441581458452       -5.78717191367797       -5.65298817156394
H           50.30700446601013       -7.56084385487947       -7.39391531686445
H           46.19713597308100       -7.51167516395293       -7.36547226172310
H           46.13621361656645       -5.73576136563042       -5.62319134189622
H           45.68984764946972       -3.47741413335565       -3.39356347447257
H           43.82459870826780       -2.10021449811426       -2.01688072654883
Cu          88.88905879800954       -0.39250608204958       -0.24606115664856
C           92.30474309843457       -0.40606265638357       -0.26206910382578
C           91.67461013927672       -1.60689357931574       -0.55082452477543
C           92.34998001695901       -2.83645806412961       -0.85263102829269
C           91.39014109633493       -3.77021135198505       -1.07245403928360
C           90.12416083545234       -3.11597276668367       -0.90575147656852
N           90.32183895079355       -1.80749081221814       -0.59119655896844
C           88.87578235623731       -3.74198146397318       -1.04660331951410
C           88.86763271901253       -5.11417210318169       -1.38360204882840
C           88.85660459729044       -6.29088627293281       -1.67951058906561
C           88.83856369332671       -7.66088884156895       -2.02787974622138
C           87.63165646093681       -8.35081694715029       -2.19259922821780
C           87.66678655869524       -9.69006640274718       -2.53759048729516
N           88.79905291846872      -10.36409985086883       -2.72297463441299
C           89.95052727722633       -9.71547086088360       -2.56798115910262
C           90.02487771279867       -8.37738410447421       -2.22440805822081
C           87.63365663345462       -3.10941213978714       -0.88352381110268
C           86.36639704443058       -3.76132174509315       -1.02789424029075
C           85.41117624080294       -2.82263483598341       -0.80269540087934
N           87.44028609681349       -1.79483905912638       -0.57294730311009
C           86.09214083248169       -1.59467753785882       -0.52046685159790
C           85.45161300104989       -0.37540807116209       -0.24536005782930
C           86.10307986089936        0.83632563923627        0.03535273981177
C           85.43427424040112        2.06932762653212        0.32434500378233
C           86.39885168121677        2.99729442817164        0.55480839351893
C           87.65972128841038        2.33398306984024        0.40534079180737
N           87.45325521730042        1.02293532278709        0.08861898901220
C           88.90852508728149        2.95411388277314        0.56496713840013
C           88.91978847603148        4.32446254900447        0.90935167830575
C           88.93978267817347        5.49940127562914        1.21188684699584
C           88.96645526609389        6.86749500508405        1.56719235801086
C           87.78490005733958        7.59396138695581        1.75560608712334
C           87.86814622301883        8.92987465699047        2.10560145508706
N           89.02393304605337        9.56734236161457        2.27419435439095
C           90.15172358455079        8.88379293995726        2.09657319137906
C           90.17794449204681        7.54575245174276        1.74620768075446
C           90.15057282495451        2.31820952706220        0.41058942115374
C           91.42320659781764        2.96235343933271        0.56625437060361
C           92.37369706875857        2.02245714218410        0.33261636577700
C           91.68611244822407        0.79881530143453        0.03451300616099
N           90.33526949032269        1.00943686281361        0.08942473113480
H           93.38990953261690       -0.40973924394430       -0.26791248890678
H           93.42142185632339       -2.95541313063613       -0.88797362148227
H           91.51443445965126       -4.81136068333381       -1.32477326135522
H           86.68660461634865       -7.84027497980178       -2.05166998224085
H           86.74550393691646      -10.24961008450325       -2.67209838716290
H           90.85516709029706      -10.29539549909631       -2.72686516972581
H           90.98458686614629       -7.88825337152676       -2.10889653430024
H           86.23473989548785       -4.80363552048692       -1.27083887444872
H           84.33971089190341       -2.94120257807549       -0.82414196841941
H           84.36385486497007        2.19736697289485        0.34714852509002
H           86.27800553615589        4.03954143445732        0.80370249684492
H           86.82195017839913        7.11412294955609        1.62890434997801
H           86.96736353051017        9.51737421264677        2.25841137503836
H           91.07674680529996        9.43433415134357        2.24211884259319
H           91.11966002144490        7.02727962946046        1.61193033967326
H           91.55835989345560        4.00163696413380        0.82068482138575
H           93.44629630505918        2.13354116153670        0.35670300196511
C           54.47976787525158       -0.43277870418084       -0.26187244578560
C           53.25990162100204       -0.39431766155355       -0.24550272779855
C           55.83209685979091       -0.47253360985565       -0.28718679313386
C           57.05169585308641       -0.51556379502866       -0.31432655994567
C           67.97547210782416       -0.69633441338535       -0.45549462842842
C           66.75354476653187       -0.70412002787574       -0.45077347868330
C           69.32551959512179       -0.68544167449090       -0.45736638663596
C           70.54735934717800       -0.66920655787010       -0.45806449236057
C           81.46875734392685       -0.40928906902775       -0.29206528563530
C           80.24855237336733       -0.44101275755631       -0.31486955767243
C           82.82110389789065       -0.38610339686972       -0.27078001854561
C           84.04162367809013       -0.37291776909407       -0.25149971039205
Cu          61.90278756102801       -0.65878688606589       -0.41610653825003
C           58.46067749955279       -0.56132407835154       -0.34667474491212
C           59.10591445746795        0.12562807151958       -1.38794057724298
C           58.43145498539587        0.85566789291663       -2.41914528890082
C           59.39123605928813        1.36761365392462       -3.23255717876337
C           60.65408089608048        0.95450759109160       -2.69757908599656
N           60.45405937024704        0.20088868149024       -1.57860743795208
C           61.90044712276613        1.29005642579268       -3.24922915029185
C           61.89872061742729        2.07481711252281       -4.42453547514627
C           61.89668944402042        2.74169112940391       -5.43824797958061
C           61.89470698441209        3.51452267166474       -6.62203392687958
C           63.09056957528588        3.90577576276380       -7.23552450969342
C           63.03399574519171        4.65881287997524       -8.39471850735896
N           61.89102711820617        5.03461297040041       -8.96312048234870
C           60.74987417021241        4.66685080809543       -8.38588827818950
C           60.69694671756109        3.91433227147147       -7.22618589530667
C           63.14765924801830        0.91181352333906       -2.72911456829495
C           64.41011547851713        1.28379652404586       -3.29377144571670
C           65.37166414647592        0.73367675075005       -2.50751155776017
N           63.35012538739655        0.14508527560344       -1.61855903547361
C           64.69835558030101        0.02103368434319       -1.46385534421703
C           65.34724276295009       -0.70152222408619       -0.44684052089899
C           64.69898504489787       -1.42441361032534        0.57020454249652
C           65.37252104734134       -2.17813139023837        1.58440599321894
C           64.41117346950706       -2.73457382193484        2.36652533349800
C           63.14864359439240       -2.31765164996953        1.83423708196800
N           63.35083764347196       -1.52390555058940        0.74281509674682
C           61.90173953444745       -2.67301756813659        2.37088984308380
C           61.89885098163515       -3.52050556628543        3.50180262434104
C           61.89254470799744       -4.25680320884064        4.46626487176698
C           61.88347818117674       -5.11991547447139        5.58591637941783
C           60.68223856899917       -5.52693192290756        6.17847680724425
C           60.72717352829081       -6.37622970644570        7.26966544103391
N           61.86376379197419       -6.83122329527375        7.79107243673131
C           63.00995121471333       -6.44865343941954        7.23368434678019
C           63.07444598981920       -5.60283664134144        6.14071470607480
C           60.65558390587767       -2.25597189494613        1.87718988389125
C           59.39340582380637       -2.60925777115378        2.45501479711280
C           58.43347156686290       -2.01336736929184        1.70113787439264
C           59.10706658763397       -1.29861869408094        0.65872951462258
N           60.45499801720988       -1.45933410278928        0.78853714407191
H           57.36114852491020        0.95634767065129       -2.50241652032595
H           59.26517157548335        1.97320556553571       -4.11582569259015
H           64.04370563578679        3.62127233565075       -6.80632243716982
H           63.94625844212483        4.97622881427663       -8.89158440376199
H           59.83602480530411        4.98994559539825       -8.87621539666291
H           59.74517946312711        3.63629016637972       -6.78987421165197
H           64.53500963174656        1.88978594780292       -4.17692616372400
H           66.44237485223081        0.79728230773613       -2.61782556272746
H           66.44324295825099       -2.26631958813413        1.67663558896099
H           64.53616667062074       -3.36917659097820        3.22933235588315
H           59.73398141586020       -5.18050182123148        5.78551393307160
H           59.81056090328924       -6.70797574467052        7.74891154193022
H           63.91830081994728       -6.83880125464683        7.68380227938304
H           64.02996246564722       -5.31705679076742        5.71760906986432
H           59.26779954548267       -3.23173420540289        3.32654175860355
H           57.36353064488892       -2.05054910466248        1.82963527787758
Cu          75.39770211027131       -0.58754085195531       -0.41137966335409
C           71.95353095343208       -0.65163033871232       -0.44995730615109
C           72.59950266705961        0.09212896683127       -1.45339131434765
C           71.92375653635267        0.81558035676300       -2.48799031298128
C           72.88321579434188        1.39223854105355       -3.25775459692143
C           74.14673750836559        1.02549372212360       -2.69205078101909
N           73.94707043605085        0.23466227820512       -1.59800872914239
C           75.39222137144210        1.43340545432011       -3.19350393241460
C           75.39351214144077        2.24002941258138       -4.35393925135480
C           75.40144385070025        2.91977405512800       -5.35904738048550
C           75.41478046760277        3.70538037239028       -6.53432105907957
C           76.61783173545548        4.15127960781334       -7.09455817962665
C           76.57807882730397        4.91202038146081       -8.24942502525307
N           75.44484429493212        5.24607991207908       -8.86180431153106
C           74.29695750716098        4.82665568772767       -8.33508978900755
C           74.22737507359854        4.06160355804250       -7.18437986515213
C           76.63919509843572        1.10359475109305       -2.63960293999346
C           77.89964041110134        1.55076053704353       -3.15237800208894
C           78.86135461400163        1.02283289222766       -2.35153716094173
N           76.84251095032172        0.31661088292485       -1.54436890026125
C           78.19054482930731        0.24834615253503       -1.35097369503929
C           78.83996855861102       -0.48358422766384       -0.34334130237468
C           78.19704651022144       -1.26427674771799        0.63151199761150
C           78.87415421353730       -2.01777220981588        1.64383299997154
C           77.91614948901783       -2.62887754732885        2.38797900658543
C           76.65184563951559       -2.24760966202821        1.83328274017959
N           76.84930307639192       -1.42034492109777        0.76699067950012
C           75.40663930541858       -2.66456500162347        2.32922148648881
C           75.41250657257231       -3.52740525442383        3.44842679458432
C           75.42200106211510       -4.27218298222366        4.40630956229655
C           75.43474008840435       -5.14162670694657        5.52094055297424
C           74.24592378773150       -5.62195763586336        6.08241726180779
C           74.31502212579274       -6.47112973155989        7.17253196953196
N           75.46361861519905       -6.85918544231139        7.72104946181087
C           76.59821758184863       -6.40668222887410        7.19316719916072
C           76.63858144724999       -5.55448257401147        6.10409597718237
C           74.15821096100545       -2.29361324040539        1.80685520005614
C           72.89716010169298       -2.71687404984535        2.33745066820459
C           71.93377412574456       -2.15122174872312        1.56447497656913
C           72.60460384144049       -1.38377298466881        0.55880928074110
N           73.95315136355453       -1.48400487896277        0.72764561550114
H           70.85295185182780        0.86827236813045       -2.60341630874089
H           72.75632511541860        2.01365072620429       -4.12985808159419
H           77.56343218873958        3.90197551963055       -6.62841416383721
H           77.49609870041881        5.27124840993952       -8.70546115997878
H           73.39153144023417        5.11611022858388       -8.86072382529794
H           73.27075592845898        3.74048962080779       -6.79023560922222
H           78.02312748758679        2.18765271731013       -4.01369994208673
H           79.93080585101521        1.13884776259472       -2.42542355933068
H           79.94483689576479       -2.06743740167944        1.76132913475028
H           78.04449289576010       -3.27946295781700        3.23829345982832
H           73.28848728409714       -5.33141366937875        5.66696955410530
H           73.40843467894730       -6.85931487684711        7.62787430651618
H           77.51696267701146       -6.74288537858902        7.66520843961306
H           77.58524814084701       -5.20987063594953        5.70571346277759
H           72.77442090442642       -3.36261191938621        3.19228316165184
H           70.86336101433275       -2.24137816943083        1.65810654423254
