304
 energy: -455.169044616663 gnorm: 0.000903141955 xtb: 6.5.1 (b24c23e)
C           50.32917598802900       -0.14271639472935       -0.00209802201626
C           50.94268874585579       -1.38769028318113        0.04968309578731
C           50.30544375506959       -2.66001198254014        0.09823197976793
C           51.27969720006968       -3.61748062773992        0.13915149865969
C           52.54334338487116       -2.96040824750258        0.11792475071417
N           52.28919863616272       -1.61907692692521        0.06412280056484
C           53.80580727675807       -3.55664019466693        0.14527357746645
C           53.83312790307535       -5.04835119624222        0.19424449246854
C           53.86148688394577       -5.78342259491961       -0.99447141136281
C           53.87031173502344       -5.06963299523000       -2.31999851673063
C           53.88446125495574       -7.17200330466809       -0.93901699063998
C           53.88094547543310       -7.83878775707931        0.28187857877140
C           53.88501297284918       -9.34299948593721        0.32773429983609
C           53.85351389504127       -7.09731650014777        1.45841413257334
C           53.83014422196529       -5.70779660194987        1.42653754068256
C           53.80493293886284       -4.91238093507389        2.70455358149288
C           55.02530632220461       -2.88093864613137        0.12438981675465
C           56.31151197487230       -3.55324306577276        0.15183769384394
C           57.24926158213540       -2.58369790371663        0.11052740575732
N           55.20243216482552       -1.53219473098763        0.06956043910337
C           56.53463813172365       -1.32265366102916        0.05857574634671
C           57.18329074814737       -0.07386800921937       -0.01799179420821
C           56.54509723730300        1.17783390540080       -0.09246781846330
C           57.17481409777265        2.44970311295247       -0.15212342003605
C           56.19611313791804        3.40427090313367       -0.18901563640446
C           54.93739939381121        2.74252476596878       -0.15117604132864
N           55.19994453742989        1.39931156869992       -0.09547052309157
C           53.67581687756441        3.34088473584446       -0.16188207489697
C           53.64605673951071        4.83218297773283       -0.21367133446606
C           53.62638013872585        5.48949687786018       -1.44702577067417
C           53.64025274330505        4.69260032528969       -2.72428522765622
C           53.59407453852256        6.87878974100193       -1.48093689707580
C           53.58184694374895        7.62247746651539       -0.30555664144177
C           53.52327632725734        9.12545323655680       -0.35401882665346
C           53.60222693572221        6.95794125301839        0.91636880421210
C           53.63484949009848        5.56963716622038        0.97391231624052
C           53.65794652650564        4.85886136542470        2.30091211700907
C           52.45567328160532        2.66423924563911       -0.12413356306874
C           51.16241510929638        3.32971135795230       -0.14240873200549
C           50.23115420657969        2.35535399713851       -0.10018677050564
C           50.95532042485112        1.09665014043943       -0.05377946300269
N           52.29166101016718        1.32054839673379       -0.07003734915782
H           49.24410123040201       -0.14789603509008       -0.00215267096645
H           49.23731638029299       -2.80851954830898        0.10033703724385
H           51.14778807409189       -4.68679109085337        0.18082150599036
H           53.00187367465757       -0.89784015715634        0.03656545202619
H           52.97637218734972       -4.45169861458401       -2.42420094828190
H           53.90140094729077       -5.78077858202564       -3.14492519618778
H           54.73958244450071       -4.41316995725260       -2.39058183610281
H           53.90752442228194       -7.74229493779389       -1.86193416466711
H           52.85913928462109       -9.71814029940827        0.30357727658292
H           54.41673577449885       -9.75620802461788       -0.52976323026875
H           54.35623443354137       -9.70300687224568        1.24258182034700
H           53.85247270363458       -7.60881196091196        2.41544418112489
H           52.90003389540016       -4.30360165592872        2.75438205770992
H           53.83134749097420       -5.56986868005542        3.57300974448640
H           54.66281248361368       -4.23887453591216        2.74840741490756
H           56.44957589836068       -4.62177088416530        0.19487871126172
H           58.32259133926289       -2.68709735615729        0.10696354626876
H           58.24148009099410        2.60520918666511       -0.15984840768306
H           56.32458432783913        4.47360181495523       -0.23591474090917
H           54.49076574535083        0.67490432739590       -0.05548229550618
H           53.59306801622868        5.34875811025266       -3.59288180649732
H           54.55115268784205        4.09409453041655       -2.78760381065564
H           52.78947586376766        4.00945185081661       -2.75421065337857
H           53.57882016912088        7.38845990123745       -2.43882057781928
H           54.02666336628035        9.56189015836703        0.50905552276981
H           52.48224669109178        9.45689156516372       -0.34285998721232
H           53.98976503754068        9.50388634548181       -1.26384951941419
H           53.59336057156013        7.52976500336402        1.83858371906999
H           53.63435808658167        5.57168069537105        3.12465202792341
H           52.79761527268577        4.19286146820150        2.38916591179910
H           54.56063012837392        4.25132645925034        2.38992984593447
H           51.01916747362938        4.39783825795497       -0.18326861410594
H           49.15619155064167        2.44698108065879       -0.09816243138571
C           90.03531464620180        0.11456887770419       -0.04099288025442
C           89.41873614704524        1.34416254168563       -0.23390397783934
C           90.05223558161995        2.60518527691351       -0.42207819400613
C           89.07513473429002        3.54873661902266       -0.57318586758286
C           87.81352117839717        2.89376670836790       -0.48347105901809
N           88.07158557769081        1.56776697882090       -0.27886115244789
C           86.54914338809009        3.47829287570886       -0.58382994418584
C           86.51833517945217        4.95508029456146       -0.79996586997339
C           86.51809489197201        5.47202074159383       -2.09843583704905
C           86.54249973072426        4.53837394062820       -3.27927304012849
C           86.49296823272589        6.84923195745342       -2.28613265037660
C           86.46703711318625        7.71807545611907       -1.20037677501818
C           86.46129279713584        9.20779278864865       -1.41365863239111
C           86.46666424867530        7.19252592834825        0.08776347505518
C           86.49147601436829        5.81906133580091        0.29876298345745
C           86.48658242488635        5.25879553096942        1.69614791185527
C           85.33163850808840        2.80472277222542       -0.49490431821963
C           84.04375371380792        3.46506327175541       -0.60614139828737
C           83.10843685393952        2.50273541182289       -0.46414902371316
N           85.15772224415059        1.46969597372853       -0.29121578379962
C           83.82616748761151        1.25790591243645       -0.26697448858458
C           83.17976635250908        0.02299919727103       -0.05827864827497
C           83.82105185228417       -1.21054661554136        0.15792769223816
C           83.19551089683578       -2.47155900270457        0.34865609995172
C           84.17719535037007       -3.41192667304214        0.49760507134428
C           85.43389104697684       -2.75226754560912        0.40035608570750
N           85.16699851536681       -1.42419813709577        0.19747539161880
C           86.69713100161735       -3.34075238693970        0.48692293131257
C           86.72977969184834       -4.81743022810564        0.70122685110115
C           86.75125709889227       -5.67991546230124       -0.39883605522449
C           86.73946130163728       -5.11800909796390       -1.79554184775413
C           86.78312644657979       -7.05358995403823       -0.19005787495055
C           86.79306248263795       -7.58103474154486        1.09721005837475
C           86.84979701752641       -9.06991368916398        1.30871430986236
C           86.77162186929974       -6.71374856224121        2.18434670640452
C           86.73944813039581       -5.33639803904888        1.99893724520601
C           86.71434066238416       -4.40506647862234        3.18156664406454
C           87.91558487583198       -2.66777823863787        0.38353535420416
C           89.21047281785729       -3.32292379343674        0.48279884936464
C           90.13933795681632       -2.35640862985387        0.33642133187083
C           89.41213669019815       -1.11301316516821        0.14648044252334
N           88.07618754623687       -1.33812594917906        0.18089014761938
H           91.12037288566023        0.12287444633731       -0.03782656109580
H           91.11985211032174        2.75661085802562       -0.43709392278901
H           89.20436432136924        4.60708292051632       -0.73375299783394
H           87.36105553886894        0.85141785783021       -0.17474265984729
H           87.44635168105842        3.92632262203618       -3.26001284717554
H           86.51756085037646        5.09451972710925       -4.21591260921413
H           85.68344774307037        3.86565264610329       -3.24805042079266
H           86.49173852391758        7.24984599719816       -3.29461764740458
H           87.48528853744413        9.58861480737367       -1.40260708512881
H           86.01501791942452        9.46172084824593       -2.37535482773194
H           85.90498908646613        9.71083996277680       -0.62222846875343
H           86.44485319953216        7.86293992966352        0.94076810002138
H           87.38461995876472        4.66253905532665        1.86897598312474
H           86.45051657918668        6.05802264074166        2.43583821284011
H           85.62170722191563        4.60863905516154        1.84037730692105
H           83.90318817858629        4.52167448455660       -0.76884469532995
H           82.03479117109548        2.60150977237561       -0.48026706942846
H           82.12951043668386       -2.63083212540875        0.36253136982036
H           84.05214457842220       -4.47060068664169        0.65803662079578
H           85.87338109024709       -0.70476787370618        0.08452378568097
H           86.77129958715891       -5.91629294410574       -2.53645336921580
H           85.83701535896301       -4.52560134012582       -1.95834942861074
H           87.59988866465265       -4.46386995205597       -1.94812918024914
H           86.79929125815487       -7.72260680707862       -1.04428515032163
H           86.39648399196075       -9.34541127498808        2.26115800127906
H           87.88989885860076       -9.40427741202556        1.31779161606402
H           86.33248591688871       -9.59599130027700        0.50590483186375
H           86.77897248771305       -7.11588207748816        3.19220074447711
H           86.75587946733049       -4.96249383110518        4.11686230003471
H           87.56362985730613       -3.72049239143562        3.14327060483155
H           85.80190446525089       -3.80561159635149        3.17234881029879
H           89.35609506204874       -4.37931815033448        0.64374953935427
H           91.21454805384316       -2.44409213192164        0.34981161151714
C           58.59229653462852       -0.06455144237789       -0.02137134092397
C           59.80929574394250       -0.05620605073682       -0.02238192477249
C           69.57174751526051       -0.08186835449806       -0.07536348042994
C           70.79056876807847       -0.08854090504029       -0.08066571823969
C           80.55388194025167       -0.01478185776859       -0.07296694732548
C           81.77071479003307        0.00833597397228       -0.06438237307869
C           61.21739786636653       -0.05683104141397       -0.02288521719006
C           61.85082525723271       -1.09943335392298        0.67874548965332
C           61.22404221752572       -2.13479684022760        1.41967817541636
C           62.20634460497200       -2.92274519870270        1.95536577953928
C           63.46202977036194       -2.39007244656742        1.55478559719140
N           63.19657951087492       -1.28838306600500        0.78682087952761
C           64.72466992664717       -2.89970442015558        1.87008795200875
C           64.74168749069729       -4.12265521815135        2.72694483591981
C           64.68081126525314       -5.39068252814396        2.14235338017562
C           64.59957908812493       -5.52540496732099        0.64506424651520
C           64.69725589276287       -6.51891883920246        2.95424065220733
C           64.77229823525157       -6.40265807274566        4.33833558591345
C           64.80963858350601       -7.63148666051339        5.20624900740218
C           64.83380838495967       -5.13563624798585        4.90918713386003
C           64.81876281069408       -3.99384831697139        4.11685712207052
C           64.88441382742504       -2.62646174403045        4.74333845779668
C           65.95152672300291       -2.37734513092475        1.46746875076483
C           67.22271128384604       -2.99424711592743        1.79913289248719
C           68.17823025054288       -2.21501073418295        1.25134558539682
N           66.15651097862919       -1.24851351444987        0.73241123562198
C           67.49183298856489       -1.11993264826335        0.59624330089650
C           68.16475189206447       -0.07254851500166       -0.06808223219219
C           67.52664772616207        0.99668691325452       -0.72831752708903
C           68.14930080207013        2.08638977873869       -1.38928011965426
C           67.16641112088350        2.88368381152292       -1.90919389343860
C           65.91205442106002        2.30548017699081       -1.57430429881111
N           66.18035246013737        1.17052992615029       -0.85593208180099
C           64.65039815978989        2.79823237736669       -1.91956138053437
C           64.63815272925362        4.03901279162447       -2.75039832273268
C           64.68589360225882        3.94283913783355       -4.14424213251151
C           64.74630560969791        2.59071867458945       -4.80354267625592
C           64.67301272161514        5.10259266121448       -4.91003794431470
C           64.61155835660804        6.35560480578413       -4.30883756924502
C           64.61662839142447        7.60370200564924       -5.14962040919427
C           64.56449408067574        6.43936718699075       -2.92125228488769
C           64.57678870496609        5.29267122599686       -2.13553960466178
C           64.52170347505449        5.39180945770110       -0.63434917621892
C           63.42138481459065        2.24440120217016       -1.56830015891218
C           62.14722361280637        2.81090401105731       -1.97288990676511
C           61.19191943160258        2.01916302894078       -1.44220823710995
C           61.88393991501098        0.97352801330665       -0.71475239765439
N           63.21990193668903        1.13137405738493       -0.81079563761978
H           60.15821186704148       -2.25173305011943        1.53012533269923
H           62.07993455405009       -3.79575007866636        2.57502461694776
H           63.89952908587182       -0.69181760797664        0.36351169601446
H           63.68410215045947       -5.06186693014667        0.27216100773702
H           65.44495409451224       -5.02182218307899        0.17280076037302
H           64.60544641713804       -6.57363358129206        0.34786755994308
H           64.64978331498740       -7.50327179168496        2.50005729399942
H           64.36466530556794       -7.43183027368583        6.18137807293924
H           64.27394970446439       -8.45623535264528        4.73563530529314
H           65.84462873804016       -7.94429338679195        5.36318870751723
H           64.89311081109719       -5.03515559889007        5.98803433623332
H           64.00414097835159       -2.04132716303660        4.47040252910879
H           64.93341803444973       -2.69797495502412        5.82947773165914
H           65.76555262294160       -2.08903346265647        4.38788211073656
H           67.33947613339610       -3.90268446860207        2.36796462519670
H           69.24682193024395       -2.35183840367053        1.26955994769638
H           69.21361121996887        2.23969186777364       -1.45127338662872
H           67.29187041599754        3.79443839959720       -2.47205222858018
H           65.47772317476857        0.54595103524335       -0.47449240747144
H           64.73085685627107        2.68598552366620       -5.88883808910544
H           63.89718725442089        1.97927333932684       -4.49287879241286
H           65.65896063260455        2.06724640817298       -4.51196686741317
H           64.70864369292205        5.02759258521495       -5.99198626039026
H           64.12626412174909        7.42811128712515       -6.10751017302617
H           65.64518493416981        7.91460801468353       -5.34731947221087
H           64.10790223195076        8.42028689145308       -4.63684812427434
H           64.51522389343786        7.41240169124576       -2.44347451560091
H           65.39816123568492        4.91616515608405       -0.19022062936135
H           64.48861512594254        6.43266502485232       -0.31388356508096
H           63.63567593240867        4.88015514617788       -0.25377640611189
H           62.02865293112264        3.69232654981694       -2.58247835920287
H           60.12056172032317        2.10925280242867       -1.52497665327232
C           72.19754716228771       -0.09071252886673       -0.08380917930826
C           72.84122575181040       -0.97574000050696        0.80409418214113
C           72.22630991102652       -1.85946960808675        1.72761524641331
C           73.21405976650084       -2.55626806778697        2.36862421578552
C           74.46392121599480       -2.11262149203938        1.85761585876711
N           74.18822727497083       -1.15291038588626        0.92024332455378
C           75.72787811828201       -2.57483796470403        2.23486770451155
C           75.74774419568263       -3.66214671049502        3.25824565716368
C           75.66788656470790       -4.99881186138338        2.85724575272588
C           75.56146377027072       -5.34016417261418        1.39476605144001
C           75.68790135904706       -6.00282471856248        3.81818083845190
C           75.78478326088265       -5.69518097572942        5.17141489554535
C           75.82758701841226       -6.79291986041972        6.19991715940611
C           75.86354670356491       -4.36166591339156        5.55895514669682
C           75.84559959853752       -3.34127852439268        4.61522125395532
C           75.93131168769867       -1.90041685669719        5.04296735460586
C           76.95352033738190       -2.11543376808049        1.75788711078704
C           78.23035057707112       -2.64526413705542        2.20172282017807
C           79.18182997993320       -1.93658601540999        1.55862231243034
N           77.14959428696501       -1.11389366411691        0.85695838757811
C           78.48490094544741       -0.97926566020592        0.72251143959322
C           79.14577973161164       -0.02743244356969       -0.07873854359766
C           78.50558508752063        0.92142039512550       -0.89770316763171
C           79.12592920994641        1.88487819534847       -1.73479189321093
C           78.13937035799478        2.57064653510106       -2.38991410189080
C           76.88739480940828        2.04272010689438       -1.97177589557613
N           77.15906649283423        1.05429422723037       -1.06457123241716
C           75.62348173317925        2.43499769869872       -2.42167119135173
C           75.60193721798059        3.51616645772280       -3.45167093374565
C           75.67348085131471        3.18837690840633       -4.80861090496334
C           75.77417366030919        1.74665045715364       -5.23048823136114
C           75.64836065548964        4.20244293236447       -5.75903686187928
C           75.55269680558035        5.53677961915934       -5.37831954790282
C           75.54494180607330        6.62756682011835       -6.41508280408348
C           75.48430001938873        5.85153909840604       -4.02499718946940
C           75.50735240146757        4.85394344196684       -3.05745086346446
C           75.42950281434682        5.20353748900929       -1.59519748070379
C           74.39995512623895        1.91315677297261       -2.00843894784838
C           73.12679896987855        2.35311069679521       -2.54865931644966
C           72.17511553181696        1.64824117266987       -1.90220448349276
C           72.86604793529727        0.78428923546034       -0.96649740255059
N           74.20015346468453        0.95508838692999       -1.06014683460514
H           71.16375697975829       -1.94365422577146        1.88268379390602
H           73.09496573713885       -3.30896782585553        3.13103647162551
H           74.88623842849663       -0.64584515982751        0.38647144146445
H           74.63573750875561       -4.93764697619269        0.97863584704569
H           76.39411232662908       -4.90240578073543        0.84128426613357
H           75.56985841172975       -6.41942091412707        1.24532888048317
H           75.62609274980420       -7.04046611752117        3.50672617897798
H           75.44656372670896       -6.44246748240375        7.15935939102399
H           75.23686683556048       -7.65065527249850        5.87711594892764
H           76.85799539495258       -7.12617558548478        6.34442544588255
H           75.93884247507853       -4.11230447200852        6.61234787373910
H           75.06185685854135       -1.34568040663475        4.68529357961688
H           75.97624529164455       -1.81858043128760        6.12852402835898
H           76.82244413841228       -1.43289738539628        4.61986208845406
H           78.35340738617671       -3.44857956515202        2.91032282158597
H           80.25367643331276       -2.02929389247316        1.63105654614130
H           80.19092808925878        2.02488560267286       -1.82443643233204
H           78.26033056052853        3.37013872204110       -3.10284676516492
H           76.46033314728773        0.49083944482008       -0.59172944404008
H           75.78066605954928        1.65873727579224       -6.31648966741346
H           74.93070556764255        1.17629075719608       -4.83731240857918
H           76.69040491256581        1.30061203618394       -4.83857724533264
H           75.70158026423357        3.94708274247276       -6.81235031049908
H           75.13355363630920        6.26542086614982       -7.35752830550308
H           76.56519557216723        6.97213035063246       -6.59960514363833
H           74.95569476046796        7.48037652325584       -6.07697329828437
H           75.40924063083919        6.88981386374692       -3.71859657931036
H           76.31482363220634        4.83920279822542       -1.07056443653434
H           75.36024844916624        6.28200826821939       -1.45614279690021
H           74.55522150093179        4.73485902066455       -1.13965820856711
H           73.00583381887404        3.09757801186073       -3.31910151170029
H           71.10662555043434        1.68460563801732       -2.03627101119937
