189
 energy: -376.935462694566 gnorm: 0.000268084390 xtb: 6.5.1 (b24c23e)
Ni          35.88090663933040        0.02744965072062       -0.06224920396513
C           32.48626583939618        0.03623767634123       -0.12881967743767
C           33.13410399903446        1.24792785330559       -0.01290326787791
C           32.44935122931256        2.49787603784861        0.11499586924744
C           33.40100703783344        3.45911411636320        0.15278291191656
C           34.66664964884536        2.79570728784158        0.03474621615109
N           34.49344660130836        1.43564057575990       -0.03717207815833
C           35.88482691297753        3.45944995207536       -0.02167670982462
C           35.88927189205315        4.94323805097102        0.00989092736884
C           35.27633756411686        5.66984771022069       -1.01071024839644
C           35.27896281913964        7.05951155424129       -0.97460173809578
O           34.69227970907287        7.77637915538857       -1.96393221360132
C           35.88881208485814        7.72633833427591        0.08926573584660
O           35.87007028636296        9.09633013674743        0.10087733119276
C           36.49867639663677        7.00006234840762        1.10896488158326
O           37.07276332048725        7.72408405301179        2.12050504243360
C           36.50567360678522        5.61121904039584        1.07122754237948
C           37.09964871809502        2.79167892640808       -0.10113773592649
C           38.36162223255288        3.45573090904757       -0.22291381940612
C           39.31310412269309        2.49153151490131       -0.21565990658834
N           37.27633049408318        1.42705223344054       -0.05482984834821
C           38.63158947838025        1.24259765718586       -0.09481681659112
C           39.29540215875819        0.01755875603708        0.00298140084958
C           38.62177053559720       -1.20336689235891        0.08051573242647
C           39.29514306356796       -2.45827883657389        0.18760825653722
C           38.34002299901159       -3.41745743175807        0.15542635148107
C           37.08168147726644       -2.74437026291927        0.04220283391369
N           37.26670314750434       -1.37997341855022        0.00921048086355
C           35.86807576157791       -3.40395442318841       -0.09413219074724
C           35.86207720947515       -4.88917378222179       -0.10791810467332
C           36.23894370622031       -5.60165325516536        1.02985558219922
C           36.22674884749403       -6.99180094060036        1.01647109769106
O           36.58419261317144       -7.69516759511076        2.11835336179036
C           35.84295196075526       -7.67259324051837       -0.13995788672933
O           35.84282336204466       -9.04315946368051       -0.12449263898036
C           35.47012926669984       -6.95991158833785       -1.27652445892794
O           35.10890504161488       -7.69718493359546       -2.37373822466375
C           35.47476316628391       -5.57037720311370       -1.26440407868459
C           34.65774923521953       -2.73431632616987       -0.21573923544962
C           33.38970642602987       -3.39498255058258       -0.32252711563084
C           32.44272520133835       -2.42824746101621       -0.33138201886655
C           33.13157437320874       -1.17890745187010       -0.22284452258632
N           34.48903182378303       -1.37280162623303       -0.16552049316324
H           31.40254430883390        0.03830427405413       -0.14073531512536
H           31.37767471913536        2.60440932698772        0.17036334858934
H           33.27125118088639        4.52425934160207        0.25394586273712
H           34.81061806094237        5.16268709590266       -1.84576930511915
H           34.79676373240019        8.72039645553011       -1.75962374624590
H           36.32912515303614        9.39503801072708        0.90205352543353
H           37.46190813256553        7.13984534024320        2.78441110428672
H           36.97136552795742        5.05138100284585        1.87377519717402
H           38.49241425023666        4.52179925540699       -0.31249330535358
H           40.38259537261588        2.60209425428810       -0.29149790994369
H           40.36315524044985       -2.57629219530263        0.27054992860785
H           38.46737472852880       -4.48676894466582        0.19451810661888
H           36.52599966383544       -5.08324497147005        1.93551076885214
H           36.50787553374258       -8.64183378200227        1.91422148154668
H           35.54813445610330       -9.35130637710646       -0.99623609162988
H           34.86652719752097       -7.12093464940528       -3.11039767201089
H           35.19444189109014       -5.02145875015814       -2.15572988192899
H           33.25375804455760       -4.46331147129215       -0.36793637695486
H           31.37104647447827       -2.53176998567505       -0.39278616643441
Ni          57.58037671794444       -0.06840080347883       -0.02271250618181
C           60.97403776490417       -0.09085012563216       -0.07780669825028
C           60.31873667237475       -1.30408742015250       -0.08863452475636
C           60.99428036881957       -2.56551947994092       -0.08671507056451
C           60.03651192213646       -3.51838160675109       -0.16505153177642
C           58.77661629933425       -2.83691003147840       -0.22801691962944
N           58.95860043422692       -1.47868373448961       -0.14694825288952
C           57.55609061690421       -3.48030662064110       -0.38524247396355
C           57.54326692588707       -4.95640103136406       -0.53725690172077
C           58.17604924529002       -5.55425315630408       -1.62700109012046
C           58.16282236740510       -6.93711704921859       -1.76758663478864
O           58.76809189738858       -7.52863689975469       -2.82614034664164
C           57.52278401988304       -7.72703785675298       -0.81116629846041
O           57.53121301850488       -9.08769443305049       -0.97283025578196
C           56.89396754616620       -7.12955125493886        0.27819843860381
O           56.29132892634321       -7.97008691050677        1.17700536467314
C           56.89726546144432       -5.74709673822953        0.41668133989810
C           56.34698163961438       -2.79820266521078       -0.40655917979175
C           55.08300918724458       -3.43141068734442       -0.63065970846604
C           54.13729222853659       -2.46869626152158       -0.51434567183922
N           56.17774404994692       -1.44870735696878       -0.19222959785754
C           54.82429571480932       -1.25060272329845       -0.22521597913438
C           54.16727758325985       -0.04439754080075        0.02813723772604
C           54.84785368551216        1.15175054884660        0.26627096714583
C           54.18223886392470        2.38688351366426        0.53278451146026
C           55.14296572534221        3.33744786537557        0.61684222316465
C           56.39696507946690        2.67726608858669        0.41430779463103
N           56.20367864608475        1.32822929312702        0.21488870140999
C           57.61313251378062        3.34257295088232        0.34313393704011
C           57.62699431354232        4.81973233690243        0.49643125085070
C           57.26054537199980        5.40276159968083        1.70888484086724
C           57.27732401984512        6.78584376873513        1.84931684347641
O           56.92829964296676        7.36380496049973        3.02435976475949
C           57.65636549572810        7.58960483731434        0.77295101364620
O           57.66131290150781        8.94951839082997        0.94063127820524
C           58.01938051193927        7.00616346871516       -0.43811410711994
O           58.37648005358823        7.85911701047540       -1.44917917853811
C           58.00927002210296        5.62387311731913       -0.58003392145600
C           58.81831013836685        2.68517725503441        0.13333726516398
C           60.08955223501206        3.34684256337224        0.08934035107689
C           61.03094289598113        2.38167601047694       -0.02835054624828
C           60.33567762323035        1.13138455740040       -0.04879927781237
N           58.97954344984029        1.32544620060536        0.03424428039434
H           62.05776484635556       -0.09809746888555       -0.08720974415641
H           62.06448943761330       -2.68527603111563       -0.02993720506513
H           60.15845804141067       -4.58918858848445       -0.17768908345583
H           58.66476344449144       -4.95000214400492       -2.38029133185523
H           58.64814856616421       -8.48951653957361       -2.74827772007950
H           57.04678470972457       -9.47986886527512       -0.22900130076636
H           55.88511405483924       -7.46966179164408        1.89676148035586
H           56.41607745452712       -5.28883818021477        1.27273278042674
H           54.94724085361412       -4.47630998949485       -0.85707180991928
H           53.06856641371318       -2.56036433122971       -0.61960142340260
H           53.11502872252017        2.49937336622818        0.63305611580069
H           55.02172344072113        4.39418725510721        0.78944212574332
H           56.97785217078977        4.78805107352246        2.55363796178876
H           57.00299214381059        8.32729785778656        2.92445975313684
H           57.94425503477586        9.35302737357272        0.10464058751134
H           58.60719590592423        7.36769609080182       -2.24839651941616
H           58.28087234690423        5.17627330722379       -1.52884114509757
H           60.23161554967530        4.41314472527988        0.15770307846122
H           62.10283823026926        2.48578979758252       -0.08484298910104
C           40.70451075120045        0.01311428864814        0.01697060971480
C           41.92063469083632        0.00865518144344        0.02476562711224
C           51.54220931261487       -0.02520204671360        0.04166387185335
C           52.75829185318019       -0.03323440803141        0.03673977679011
Ni          46.73170658474790       -0.00640768398375        0.02240312237399
C           43.32859963075280        0.00346673056080        0.02686059136291
C           44.00821988176209        1.17833016985344        0.36316759381501
C           43.36295798427818        2.38150927464564        0.77924365546124
C           44.32131838788911        3.33977491547070        0.83456672082851
C           45.54979971805469        2.71894999749397        0.44434310041295
N           45.35425599198811        1.37590221750071        0.21715328304246
C           46.74114360783784        3.40126463479931        0.22243695206479
C           46.73855683589998        4.87972584246715        0.29319202172132
C           47.59469827674697        5.54933947522823        1.16901013381436
C           47.59768544387089        6.93928248988535        1.24583988303710
O           48.41930076390518        7.60159390049358        2.10106756405434
C           46.73858994028270        7.68138885607959        0.42846777930092
O           46.72133403695194        9.03847386771146        0.47631136281195
C           45.88743293923487        7.00431021615963       -0.44915040915126
O           45.07459090848451        7.79025683504281       -1.22490903944230
C           45.87607320003362        5.61876780243984       -0.51988935286096
C           47.93089366858650        2.74303476586396       -0.06746806037544
C           49.16615830361312        3.39729501812743       -0.37293341604704
C           50.11955420537652        2.43380540958492       -0.41654737651553
N           48.11810882458822        1.38129014322721        0.00661290654209
C           49.46428404428492        1.19417159724287       -0.14958705041536
C           50.13431159128255       -0.01832618319709        0.04046583544762
C           49.45335952242125       -1.22580147220878        0.22002188023739
C           50.09746818218073       -2.47330025601336        0.47900352898066
C           49.13954116442691       -3.43016819626133        0.40656253039507
C           47.91209047838548       -2.76348749826871        0.09568153389844
N           48.10761443000391       -1.40230786940299        0.04560342065891
C           46.72210180421253       -3.41032632791129       -0.21789370353921
C           46.72180487242579       -4.88734885938882       -0.33305624090715
C           47.58622993095697       -5.51541667710534       -1.23137183382625
C           47.57809284275434       -6.90016673742180       -1.34990957759598
O           48.40222177777280       -7.52095267571136       -2.22633493091853
C           46.70691863748266       -7.65895448807792       -0.56576949251675
O           46.73270225876661       -9.03966613902985       -0.70904045286779
C           45.86959533756903       -7.03602022888124        0.35809625160149
O           45.04424448949835       -7.77659215954289        1.15069264578095
C           45.86449957575370       -5.64966660295883        0.46189458471738
C           45.53400258800615       -2.72008772281837       -0.42761516745132
C           44.30001479475619       -3.33005627820212       -0.81877286778677
C           43.34666654651502       -2.36899241296634       -0.74269864549512
C           44.00028941672074       -1.17348631336850       -0.31639219643653
N           45.34625984434489       -1.37901227354889       -0.18117003728401
H           42.31160961173651        2.46945622073991        1.00042477481962
H           44.21453814996992        4.37367956592234        1.11998842293121
H           48.25328226387123        4.98435897997629        1.81904586772134
H           48.96407250851789        6.98641202286661        2.60938071292907
H           46.06356254588069        9.35619503960833       -0.16317413138844
H           44.52696793019608        7.24874224688184       -1.80806124996358
H           45.21754691901771        5.11823265266864       -1.21999815596934
H           49.28106853189526        4.45634955311702       -0.53681655629240
H           51.17363930845674        2.54055378773696       -0.61489767646551
H           51.14826033145053       -2.58933147708952        0.68935157809236
H           49.24577683105331       -4.49253686046288        0.55364896199150
H           48.24765448550386       -4.93430477042740       -1.86083463791708
H           48.25430767518937       -8.47922150233441       -2.15802981260802
H           45.83643776057792       -9.39616595227002       -0.76394240679605
H           45.32471892901124       -8.70300570171871        1.15031404633775
H           45.21292400440475       -5.17699507595138        1.18535317687520
H           44.18606306473259       -4.36009261884237       -1.11478900948827
H           42.29333443031035       -2.44950117455610       -0.95660403812062
