185
 energy: -333.722339661692 gnorm: 0.000747821764 xtb: 6.5.1 (b24c23e)
Fe          28.60684334210541       -0.03576364617529       -0.10645774623766
C           25.23576488315326       -0.06755259826570       -0.42100653481317
C           25.87086045869151       -1.27070027390682       -0.18984119035651
C           25.18100074508062       -2.51394239856062       -0.02391279049655
C           26.13006887453810       -3.46362108562839        0.15221557873016
C           27.40017462039603       -2.80277195827231        0.06186598030419
N           27.22545959347968       -1.45475824024353       -0.10139979471672
C           28.62470093757048       -3.46309339196929        0.06093436552059
C           28.63920860823977       -4.94165720537728        0.15298986753219
C           28.00963894287304       -5.72274248452009       -0.81681764820411
C           28.02617856675785       -7.10619220634119       -0.73206297676114
C           28.67084958438974       -7.72569008901328        0.33618523341382
O           28.70660285757831       -9.07721151514388        0.46067391980557
C           29.30290700699467       -6.95703489391391        1.31211056174394
C           29.28909691092802       -5.57719038888812        1.21411482554745
C           29.83632369870364       -2.79493662307913       -0.05662086971487
C           31.10121855979217       -3.45257775424581       -0.19810016316491
C           32.04374377888487       -2.48071215070835       -0.25440597195593
N           30.00690194989319       -1.43160115821396       -0.05311199041126
C           31.35348456451642       -1.23440544329158       -0.13950248858219
C           32.00913317059391       -0.00290895571389       -0.01896596363234
C           31.32679664617202        1.20938044123313        0.14527262812624
C           31.99049982468560        2.45989714709988        0.34184444081160
C           31.02553302756095        3.41000228515969        0.37686302196709
C           29.77391342726223        2.73644149309213        0.19400818095818
N           29.97629309042438        1.38079379006680        0.08034707318182
C           28.56382363833504        3.39226552185589        0.01781632946407
C           28.54511557916815        4.87416477678472        0.07940480549703
C           28.84540733105044        5.54004208484828        1.26965179385808
C           28.82535200320607        6.92231583098760        1.33144037799516
C           28.51053344975699        7.66085934076148        0.19220089740971
O           28.50295162133831        9.01554052773798        0.28673361437904
C           28.21528617769713        7.00975048936148       -1.00328223441315
C           28.23043699302434        5.62446262011922       -1.05368805150995
C           27.37374453021385        2.72160852850944       -0.24752792453088
C           26.11617896485234        3.37466643493909       -0.47112171508520
C           25.18939996958351        2.39982767878864       -0.62507850132438
C           25.87646893177815        1.15321865409222       -0.47098958348512
N           27.21460210438900        1.36259628141106       -0.26125842213825
H           24.15753623362385       -0.07810218835735       -0.53508194105973
H           24.10820213491013       -2.62450156743043       -0.03246632207961
H           25.99346748519598       -4.51826043523577        0.32832277289604
H           27.51990790790318       -5.24251098254240       -1.65662163686104
H           27.54178128672385       -7.70857160295694       -1.49309993761632
H           28.23796307442129       -9.51048477115162       -0.26530696848015
H           29.79801062716112       -7.45222433067342        2.13824466827181
H           29.77182733638346       -4.97859970265817        1.97847847684758
H           31.23868841128710       -4.51980390545812       -0.26036162939453
H           33.11216266612274       -2.58340147456655       -0.35582975732354
H           33.05805961106071        2.58020587207326        0.43238265848107
H           31.14265453523380        4.47522585923604        0.49183569269571
H           29.08045100835748        4.96492105661451        2.15821064781150
H           29.05059530598422        7.44214192853146        2.25443452135267
H           28.26991166175858        9.42585916417272       -0.55691751376909
H           27.97634252238068        7.58866827922185       -1.88898147285488
H           28.01329913639731        5.11866231609439       -1.98790718737896
H           25.96990992641475        4.44234841987070       -0.49358069144521
H           24.13048230194768        2.49681630892898       -0.80534275889205
Fe          60.56505046511651        0.00358402791270       -0.09382291666069
C           63.94566820858796        0.00874157240627       -0.32214480265771
C           63.28842892415938        1.21241160178058       -0.47130963476694
C           63.96200788013643        2.45693326879224       -0.68786072360454
C           63.01521532268099        3.42332214672599       -0.63870418752494
C           61.76027319250001        2.76511597627289       -0.41545786595211
N           61.94038302383269        1.41169476031954       -0.32480872479052
C           60.55104347739782        3.43262322775441       -0.24441279255472
C           60.54711851981821        4.91512831338527       -0.28153286537897
C           60.90481292303719        5.60017049939806       -1.44275699050639
C           60.90212348379958        6.98622304856494       -1.47552393392170
C           60.54523447467563        7.70403599203200       -0.33636673202514
O           60.53424379670547        9.06172482772430       -0.32313713251272
C           60.18609416006316        7.03104254934625        0.83012033856063
C           60.18469456923414        5.64768805607580        0.85123611770659
C           59.34584165923532        2.77158137111097       -0.05449730280730
C           58.08015298067426        3.43688908519603        0.04091995068846
C           57.13173813055714        2.47058159782050        0.08138374069275
N           59.16740388131338        1.40782908589472       -0.05114411281816
C           57.81930344280094        1.21945980713551        0.01336027900366
C           57.15785684497929       -0.01470206794939       -0.03494770284226
C           57.83455008059320       -1.24113353561826       -0.05386700039512
C           57.16380630878698       -2.50280739560516       -0.08188717439586
C           58.12215408797280       -3.45375941060883        0.03223080534927
C           59.37635817695200       -2.76792433919898        0.12804291654297
N           59.18388459159686       -1.40982454613191        0.04115992059738
C           60.59741244375679       -3.40759035948519        0.29391026122777
C           60.60575707199559       -4.87758726415776        0.47635204155122
C           59.94928398000498       -5.45931467382567        1.56406834971499
C           59.95451881753389       -6.83089919856961        1.74389245441630
C           60.61350443856585       -7.64603498091642        0.82513923530251
O           60.59532205458159       -8.98806136659572        1.02898100763061
C           61.26681519466597       -7.08074245061590       -0.26770348808667
C           61.26354859428540       -5.70478757850269       -0.43483393699398
C           61.81171467325911       -2.72844591095376        0.26964476975747
C           63.08919030104738       -3.36195276004862        0.42653554603215
C           64.02750985990065       -2.40821933633931        0.21804352536557
C           63.32254407530044       -1.18886183962504       -0.03696362305300
N           61.96902076059121       -1.39020237861952        0.02889705509535
H           65.02698979888191        0.00971367647443       -0.40262130627083
H           65.02546232548941        2.55978517023204       -0.83498372359055
H           63.14621080634716        4.48911215445318       -0.73197265612788
H           61.16988114057648        5.04273741175401       -2.33422377278812
H           61.17520587675589        7.51429294480218       -2.38286175424604
H           60.80050985409605        9.42479388452238       -1.17850489347629
H           59.91289195434570        7.60202771029257        1.70883538385907
H           59.91643036945795        5.12338210788916        1.76155564430365
H           57.94323899385108        4.50584818096017        0.05147195422040
H           56.06097674236162        2.57965175274783        0.14367119739010
H           56.09706185244209       -2.62902926983511       -0.17354931529281
H           58.00131999228901       -4.52472542455316        0.03834661739132
H           59.44605872040280       -4.82420463861102        2.28447639003502
H           59.45339805222762       -7.28391412362611        2.59034482295653
H           61.08061428744277       -9.45645798202301        0.33651454013294
H           61.77311785021704       -7.71940656829743       -0.98353927404837
H           61.75965520906379       -5.26749126220832       -1.29412008828238
H           63.23777292572382       -4.40192736156718        0.66787135179096
H           65.10177833500865       -2.50078295724538        0.24143863545789
C           37.20694702392748        0.05139793938311       -0.09235943977999
C           35.97658192365665        0.04363100131822       -0.07371056035379
C           34.63543912637508        0.02957439158337       -0.05430152079397
C           33.40979901761808        0.01422236164832       -0.03578924502796
C           38.54801293114512        0.05843421907717       -0.09947014459039
C           39.77407975434892        0.05468766396497       -0.11154804524963
C           53.19109075056105       -0.04968158267051       -0.03080190502549
C           51.96010205861118       -0.05715507901066       -0.02193116478982
C           50.61972469283645       -0.05988136105597       -0.01702507656877
C           49.39319204648031       -0.06067921004042       -0.01409708303823
C           54.53166142680457       -0.03829233043498       -0.03624790118161
C           55.75786442556684       -0.02465482461839       -0.03978568165011
Fe          44.58439519339014        0.00637965507675       -0.07189419821443
C           41.17360690676969        0.04786710324300       -0.10892408092064
C           41.84969079977429        1.02507684641282        0.63414613980977
C           41.18660037672748        2.01334052390810        1.42412368142804
C           42.14845577263799        2.85217828560521        1.88230913935417
C           43.39376120024051        2.37689036440007        1.35915408693591
N           43.19765489828834        1.22717888570159        0.63438721767636
C           44.60692789098965        3.04072480590896        1.50535841645888
C           44.61780939594337        4.35214348411314        2.19235178030736
C           45.37724891158241        4.54098389487468        3.35020075641523
C           45.38563181177502        5.76188637122927        4.00012116994288
C           44.63823047683891        6.82228449730008        3.48983389742462
O           44.67437441088845        8.00772318580766        4.14894757659811
C           43.88099719163522        6.65027956887493        2.33300240575245
C           43.86912517932468        5.41990020707411        1.69527322344909
C           45.81028866605782        2.52665872376206        1.03577818291950
C           47.06398131334176        3.21411603755363        1.11383197875605
C           48.01276368421581        2.34647895035826        0.68292372085055
N           45.98843993189684        1.27086215440525        0.50898256582841
C           47.33364026871967        1.13874850828709        0.33534272902387
C           47.99463431468302       -0.04523741825877       -0.02152605068282
C           47.30853865497943       -1.21023717510123       -0.39280482090953
C           47.95907473899633       -2.44046108864382       -0.71436866106927
C           46.99803830185656       -3.27663342789133       -1.17956693740413
C           45.76640795660843       -2.54682647206190       -1.14972115351115
N           45.96654185488193       -1.29849375942073       -0.61348355770395
C           44.56602924550818       -3.01564612535853       -1.67262414971585
C           44.56203424428376       -4.31752795939337       -2.37658360584378
C           43.74453190742447       -5.36094625478784       -1.93936403707647
C           43.74122269962634       -6.58104166611496       -2.59652902830227
C           44.55431744399758       -6.76793102109795       -3.71241307076960
O           44.57796281323856       -7.94385779489214       -4.38887453579702
C           45.37264235793349       -5.73272564850968       -4.16193026050053
C           45.37710694431677       -4.52192177436492       -3.49350166007667
C           43.37022338985269       -2.31418513144733       -1.56152362260542
C           42.12705923652184       -2.74636508419885       -2.12573317809057
C           41.17482684032385       -1.89411907447760       -1.67190711336445
C           41.84285224397753       -0.93643819699801       -0.84937201534695
N           43.18526056827668       -1.17033113271678       -0.82403080697885
H           40.12293844027629        2.05015928979498        1.59608956390999
H           42.03333444163136        3.71277223269445        2.52086057739547
H           45.94873176463539        3.71276985144365        3.75397253121871
H           45.96479932276776        5.90832279351233        4.90341440779880
H           44.12266439948346        8.67155346747020        3.71365566006067
H           43.30547587736857        7.47967961370703        1.93621464469586
H           43.28935637701318        5.29068582684063        0.78815416365956
H           47.19276020045659        4.22965950897965        1.45099553153084
H           49.07765291367267        2.49620298876950        0.60646260644225
H           49.01456287678043       -2.62604119554756       -0.59673192738277
H           47.10487609375063       -4.29723851650001       -1.50908278074771
H           43.12164819758876       -5.22186640214099       -1.06281825044103
H           43.11040327635284       -7.39110877469986       -2.24666920998710
H           43.97469514635830       -8.58954656783407       -3.99685937569835
H           45.99601734488640       -5.89040914287467       -5.03333983455922
H           46.00359892350826       -3.71265490166345       -3.85147989246309
H           42.00611221352257       -3.58970515939638       -2.78583276727471
H           40.11508587475687       -1.90062848765977       -1.86998598436373
