432
 energy: -755.197332377859 gnorm: 0.000853842499 xtb: 6.5.1 (b24c23e)
C           88.56084153762269        0.08214906371157        0.01780603866896
C           89.16863079296246        1.22889480236151       -0.47689431740193
C           88.51590702395661        2.37854735643611       -1.00350793251739
C           89.47721380286102        3.27889383205519       -1.36794836524867
C           90.74850346816955        2.71372446251894       -1.06340045749485
N           90.51138017528176        1.47379223706930       -0.54085993031674
C           92.01067542880701        3.28720813486090       -1.25646186212085
C           92.04184987888323        4.66259036865329       -1.81030542309703
C           92.69061496877259        4.92310438603415       -3.01812594070439
C           92.71643792739546        6.20392103505765       -3.54727455719733
C           92.09435135508410        7.24657128859493       -2.86442202539186
O           92.09676311966106        8.51641877479350       -3.34550726828050
C           91.44646536235395        7.00134046307457       -1.65511427213331
C           91.42007150891536        5.71804288695667       -1.13839424655406
C           93.22582649309757        2.65998053254019       -0.96794624223462
C           94.52076205209880        3.30359840890959       -1.09863526224564
C           95.44264148953097        2.38461801605933       -0.74342988660348
N           93.38218068717329        1.38425711632151       -0.51973112645802
C           94.70984454172640        1.18456949306164       -0.38951823886697
C           95.34793408301280       -0.00952243261476        0.00085231393819
C           94.71341817039131       -1.20186826479358        0.39588319133827
C           95.35737780381839       -2.41481193049608        0.75760138448202
C           94.39160077147555       -3.31681002094157        1.10921515993491
C           93.12694329404698       -2.67813575559573        0.98198588023971
N           93.37305444397278       -1.40643306206406        0.53562743372714
C           91.86697950443588       -3.22745915809269        1.24335004445936
C           91.83667772492022       -4.61420690902043        1.76705068124771
C           92.46665670097460       -4.93422073099598        2.97252908939554
C           92.43751409569940       -6.22607632772608        3.46696462259277
C           91.77933997025735       -7.22515876069663        2.75208656781593
O           91.77400693258512       -8.48305641464501        3.26351548312514
C           91.14998031181987       -6.92227496420085        1.54686313678973
C           91.17784115885210       -5.62340570759775        1.06358397840991
C           90.65098477737779       -2.56390468394686        1.04624807942088
C           89.35002214017749       -3.12292818741176        1.37929746834923
C           88.43487140601506       -2.19561692692520        1.03168134260970
C           89.17599274081519       -1.06654276563582        0.49824220432021
N           90.50748575688462       -1.31881918985628        0.53369271310212
H           87.47549950530365        0.09303399328012        0.02399116574011
H           87.44678889235352        2.48702033228941       -1.09376804339747
H           89.32442580818653        4.24693585217370       -1.81683995119391
H           91.23724627223734        0.82878118782416       -0.24714017566888
H           93.16372343617827        4.11004577492334       -3.55739964069041
H           93.21620963054684        6.39841757686946       -4.49018031643861
H           92.57789529833215        8.57528891558094       -4.18183147598766
H           90.97168551119073        7.82236340375656       -1.13222286990985
H           90.92902645298902        5.53180906293205       -0.18969635600544
H           94.68054750530851        4.32505057579793       -1.40395706919313
H           96.51559252145375        2.48622011115997       -0.70875230248798
H           96.42422656321749       -2.56949909815173        0.74253133955098
H           94.53872574478790       -4.33825358976833        1.42011501013983
H           92.65122433128498       -0.72160663954330        0.33668645123460
H           92.96643019284933       -4.15475571005802        3.53687379699628
H           92.91798129153356       -6.47457808204130        4.40520352877437
H           91.28909840533134       -9.09368054433285        2.69222244403370
H           90.64276357083016       -7.70391502929893        0.99146365092578
H           90.69898674699637       -5.39210041929285        0.11864121917302
H           89.18470865466857       -4.08798526386296        1.83080546669730
H           87.36082752681253       -2.23867999906895        1.12387032664799
C          176.09914059337638        0.03079706028237        0.11626193785633
C          175.49115404632363       -1.04325212047018        0.75328006327764
C          176.14466254854483       -2.13661284965913        1.38794962470750
C          175.18345794326908       -2.96837907228453        1.88949848802535
C          173.91108893827430       -2.40388655702403        1.58784908972987
N          174.14800835929117       -1.25101016322636        0.89397508426470
C          172.64886054756803       -2.91478492195043        1.91102140544237
C          172.61988903170948       -4.17043370539717        2.70023451032796
C          172.00780272473611       -5.31569700624151        2.18962166434396
C          171.98354624077635       -6.49261510581301        2.92165163228923
C          172.57002617587435       -6.53362920055726        4.18445882911288
O          172.56703584975955       -7.66437653464479        4.93645333348830
C          173.18190079206846       -5.39611362992037        4.70785735551288
C          173.20721435953928       -4.22804319317299        3.96667275081032
C          171.43279642829449       -2.32750506630665        1.55110074590805
C          170.13531863528075       -2.83763235781497        1.95707307643187
C          169.21415656458237       -2.00813572758070        1.42460796062042
N          171.27805566027712       -1.20081872594364        0.80353937686054
C          169.94959408318138       -0.98777332573379        0.70288645733071
C          169.31355198833003        0.06122832558170        0.01100653772036
C          169.94721509215472        1.11010269700307       -0.67967721406145
C          169.30173481971354        2.13781249358952       -1.41775801433336
C          170.26745387599291        2.95121226188542       -1.94224584654058
C          171.53411602556216        2.45155020679010       -1.53010564509037
N          171.28847400693439        1.33394032784831       -0.77663193549765
C          172.79522166564612        2.97210031486135       -1.83938029069976
C          172.82844221808099        4.20741206900348       -2.65908880245648
C          172.22463124586929        5.38280847945794       -2.20536743731809
C          172.25565853203716        6.53633646576691       -2.96883479574660
C          172.88946610546512        6.52713267773896       -4.21002210351095
O          172.89675956829771        7.67489677621797       -4.93572355091730
C          173.49353910514122        5.36206841955619       -4.67700009202716
C          173.46399518042369        4.21357198208295       -3.90146412154596
C          174.01125056261671        2.41184272858465       -1.43285255240117
C          175.31347447537667        3.00205369173037       -1.70093273481365
C          176.22769106698905        2.17740324370419       -1.15111371000619
C          175.48499781725428        1.08895607624601       -0.54079233170466
N          174.15351153916387        1.26841367687706       -0.72174876055850
H          177.18436726434285        0.03365212461099        0.13670978885538
H          177.21439343544409       -2.26258125363704        1.44028009142230
H          175.33669711546725       -3.89723389516487        2.41459730083196
H          173.42164226131152       -0.64190072714852        0.53258252572114
H          171.56229203336082       -5.28911462196665        1.20143607935482
H          171.51219478663396       -7.38157999875419        2.51637626347323
H          172.11153708283069       -8.38707855903636        4.48415453241445
H          173.62953733235847       -5.44071106982785        5.69301756845509
H          173.67017796651928       -3.33944350196967        4.38128188836708
H          169.97301408754251       -3.70283601668771        2.57930426130341
H          168.13992182026115       -2.05465768049795        1.50574498253451
H          168.23383011957003        2.22903939912065       -1.53421751800315
H          170.11891398667552        3.81565130538126       -2.56859017228341
H          172.01162661421253        0.75455301450734       -0.36311291850936
H          171.74399994392297        5.39527311535646       -1.23344800902118
H          171.79515942514749        7.45073556713744       -2.61570367587211
H          173.36378675110197        7.55872159718472       -5.77403364509136
H          173.98229953196289        5.35821471213609       -5.64541134312121
H          173.92324849330518        3.30390687624209       -4.27208231601670
H          175.47991026021185        3.92953583107930       -2.22497686128723
H          177.30214427110738        2.27366330916008       -1.13640064275628
C           97.97753417827229       -0.04551141491820        0.00109127730669
C           96.75581626692056       -0.02681415568944       -0.00118815320872
C           99.32833213610239       -0.05803880304912        0.00150111870654
C          100.55027381996187       -0.06500399687709        0.00562585708763
C          111.44826621531085       -0.04069552323328       -0.00682299220736
C          110.22530248665156       -0.04862623638816       -0.01949445401854
C          112.79681766835311       -0.03586075874492        0.00373645651688
C          114.01976651202587       -0.02640804493367        0.01811801903648
C          124.91904907069437        0.00500040314699       -0.00538182132948
C          123.69591422668192        0.00316062993400       -0.00598684047864
C          126.26751282001914        0.00757044971691        0.00173726727685
C          127.49059896307074        0.01685149885958        0.00473812681051
C          138.39029072476032        0.01855375554675       -0.02400783311376
C          137.16718246061549        0.01984781305767       -0.03379626341498
C          139.73872015621501        0.01291825913701       -0.01370932026804
C          140.96181346759164        0.01245600992348       -0.00409167240119
C          151.86113716536931        0.03611396577453       -0.01892024064985
C          150.63814255943583        0.03434038526927       -0.02805321588541
C          153.20982084698784        0.03446780430756       -0.01411377906457
C          154.43282780786967        0.03658624237865       -0.00628675499413
C          165.33093021834611        0.08915252704536       -0.01848750822117
C          164.10945411594750        0.09166507753531       -0.02490665891757
C          166.68283372334716        0.08068852784810       -0.01152095599455
C          167.90414846751241        0.07211102773700       -0.00137989369069
C          101.95739119728300       -0.07178851145781        0.01475058758718
C          102.58227310310738       -1.20213552196151       -0.54488516276192
C          101.93137861588681       -2.31088066441653       -1.14487758958746
C          102.89527654023615       -3.16389229623264       -1.60883144607957
C          104.16414281495715       -2.60460452603469       -1.29597042535341
N          103.92375216906109       -1.41938825836764       -0.65363672568228
C          105.42281059614805       -3.13101903722051       -1.61308966614303
C          105.43190014819881       -4.43861005122545       -2.31554300355374
C          105.97730111840532       -4.54932038969527       -3.59498053801737
C          105.97909784740850       -5.76465991332682       -4.26165986608736
C          105.43781749022163       -6.89119180980247       -3.64662218314041
O          105.42003818481447       -8.10118192142735       -4.26255541585678
C          104.89450980245860       -6.79542848160859       -2.36677161490189
C          104.89013143466293       -5.57625222321234       -1.71243503829701
C          106.64912978766436       -2.52844205921598       -1.32782029609255
C          107.93484798846848       -3.13851316051049       -1.61554749252768
C          108.87498484175211       -2.27625729457283       -1.17588259445551
N          106.83020756901449       -1.32455745356020       -0.71674950167854
C          108.16249572102183       -1.14594608094500       -0.61436289457588
C          108.82079417401121       -0.04455951525860       -0.02989520990666
C          108.19448629368091        1.06832473755659        0.56516425586103
C          108.84458361359731        2.15810541091682        1.19933951353828
C          107.88039487022779        3.01255450329253        1.66041376359200
C          106.61253129772662        2.47329065994405        1.31108997772021
N          106.85377141746621        1.29504158010436        0.65544100047229
C          105.35359037943006        3.01582130333955        1.59664052357091
C          105.33999238544537        4.32317554670969        2.29828339095396
C          105.92261898031221        5.45199346733829        1.71692604266802
C          105.90788799435714        6.67237034494586        2.36880777396184
C          105.31265111622864        6.77836058237364        3.62454423560826
O          105.31993353893827        7.98954914393331        4.23822515759953
C          104.73152517454359        5.66040968991381        4.21862061056541
C          104.74411375991451        4.44399380955683        3.55430360235576
C          104.12713086286719        2.42826006247210        1.27927957442041
C          102.84237353513085        3.05899907003590        1.52420948887058
C          101.90248228646689        2.19774605240639        1.08245072549921
C          102.61423513502942        1.04721964139511        0.56272650759306
N          103.94700672779122        1.21660955140141        0.68586537239706
H          100.86212007599505       -2.42756346653116       -1.21775607819705
H          102.74184419400628       -4.09256611584350       -2.13374943513983
H          104.64551544072823       -0.78744369117349       -0.32345706944224
H          106.38758566002369       -3.67041554182022       -4.07963934805734
H          106.39741623395318       -5.84282474647881       -5.25943679797663
H          105.82436727991148       -8.05625034684447       -5.13940552582003
H          104.48187619922371       -7.68052160100665       -1.89856300397839
H          104.47880550384571       -5.50542791619882       -0.71165446325037
H          108.07751839622588       -4.10350765680428       -2.07433296306087
H          109.94822870417994       -2.37598524352278       -1.20814280197803
H          109.91329107465765        2.26310803154818        1.29433592497416
H          108.03273998586090        3.92973642506544        2.20546210313347
H          106.13240335219650        0.67671484998136        0.29964444184283
H          106.37317412711442        5.37385748260104        0.73373552313664
H          106.35129883715504        7.55089649728686        1.91665496083804
H          104.87585993251423        7.95250411025955        5.09603557246462
H          104.27317615688612        5.74632713690716        5.19799479724935
H          104.30203075237362        3.57175675165216        4.02276301925526
H          102.70042083544649        4.03555750350434        1.95799775399831
H          100.83006417181079        2.30985971905273        1.08893440900778
C          115.42415891952230       -0.02960938829378        0.02927855009179
C          116.05196329291364       -1.12900301140959       -0.58910309376498
C          115.40315420441205       -2.20706331602938       -1.24380398830472
C          116.36872895288244       -3.04506638308814       -1.73185970427574
C          117.63598117801709       -2.50636750394115       -1.38031126079553
N          117.39330558552392       -1.34620287528857       -0.69398825682738
C          118.89583647090231       -3.03126057555185       -1.69591133011635
C          118.90729870101663       -4.31819932272363       -2.43497361434982
C          119.47924920197175       -4.39894166076872       -3.70510021289929
C          119.48671636583735       -5.59597510837482       -4.40398697597738
C          118.92439927623489       -6.73438134120097       -3.83108168258735
O          118.91220194780090       -7.92749404880449       -4.47915590440600
C          118.35352478978700       -6.66846336911348       -2.56137013892856
C          118.34374863052852       -5.46724486336394       -1.87476639540897
C          120.12192556562782       -2.44555307365608       -1.37659047886181
C          121.40764691622535       -3.05581551088455       -1.66338986988088
C          122.34721044958911       -2.20682415318347       -1.19731452697719
N          120.30221140261362       -1.25681545163428       -0.73611614546797
C          121.63420891042644       -1.08529690793308       -0.61942486345092
C          122.29162409392333        0.00464201117518       -0.01249229329417
C          121.66371529589247        1.10304635360827        0.60741946506596
C          122.31249843698542        2.18112478274001        1.26204314843562
C          121.34688018509560        3.01968268235886        1.74903361519586
C          120.07961553333476        2.48158574281122        1.39640973050428
N          120.32241321830300        1.32063400019801        0.71135534929502
C          118.81981628119455        3.00822744976118        1.70916652284207
C          118.80885371261951        4.29803446301504        2.44308998951057
C          119.37642834869376        5.44331045412172        1.87912289711260
C          119.36767777834133        6.64767253258969        2.56013282946128
C          118.79366555594066        6.72072171880877        3.82804649150830
O          118.80702775451445        7.91674640135994        4.47065105859174
C          118.22722850289497        5.58622239315340        4.40464519175708
C          118.23379657032875        4.38592620269546        3.71133830379045
C          117.59356952117618        2.42247681402282        1.38996406217948
C          116.30779897979403        3.03392033490005        1.67409935027384
C          115.36832942134313        2.18429355312970        1.20894019529672
C          116.08141333862841        1.06103889585633        0.63469413078195
N          117.41347629629071        1.23237235607593        0.75219881272185
H          114.33435981857311       -2.31588821828480       -1.33336139519732
H          116.21720697530836       -3.95014319064464       -2.29699277828305
H          118.11383491577845       -0.73264927304226       -0.32836591144656
H          119.90620548631750       -3.51061262698776       -4.15706060744500
H          119.92619379706395       -5.65075324922903       -5.39419374864972
H          119.33827615014106       -7.86290144598056       -5.34441747131475
H          117.92446804152053       -7.56251170916787       -2.12610174395771
H          117.91146967756879       -5.42006968423231       -0.88145231062757
H          121.55089826407540       -4.01211207666684       -2.13982790566393
H          123.42023382498505       -2.31096694458341       -1.22110880674544
H          123.38128265934716        2.28942451000785        1.35245488787923
H          121.49840254114088        3.92481529254051        2.31407048812279
H          119.60194199880775        0.70745579729882        0.34497498668984
H          119.81108975312343        5.39060253020679        0.88712078827534
H          119.79996883187378        7.53869779027911        2.12187448310317
H          118.37873320906401        7.85718399917089        5.33517500851953
H          117.78531543377687        5.64658246638688        5.39344223555814
H          117.80378088437577        3.50067362242813        4.16641839992865
H          116.16439069020971        3.99134917025438        2.14820026189642
H          114.29529897994331        2.28876235983848        1.23154983117552
C          128.89489943719761        0.01350568737540        0.00510977529734
C          129.51892655631204       -1.08476772657378       -0.61920754657925
C          128.86655306028331       -2.15969988782817       -1.27545958895108
C          129.82943002242610       -2.99790567136426       -1.76857387304906
C          131.09850759906166       -2.46293855912648       -1.41796805928079
N          130.85959407731733       -1.30413285451890       -0.72795367221269
C          132.35659793166258       -2.99028364500725       -1.73638513734226
C          132.36404829754474       -4.27606959806877       -2.47755899081144
C          132.93395010244151       -4.35653434825699       -3.74861077175763
C          132.93864935783333       -5.55302757419594       -4.44847534105389
C          132.37574334484879       -6.69114638482743       -3.87556854319550
O          132.36127027935359       -7.88382529387180       -4.52437651424386
C          131.80667936085865       -6.62540849521342       -2.60503639114526
C          131.79955404727684       -5.42471496021986       -1.91750521354212
C          133.58472565633301       -2.40921069415823       -1.41634267807000
C          134.86830524091718       -3.02300022099128       -1.70534045497539
C          135.81085304308635       -2.17921047471545       -1.23588297717389
N          133.76917266838657       -1.22311469121146       -0.77228548596711
C          135.10181105371376       -1.05691686956317       -0.65472491569446
C          135.76295488873652        0.02868499500533       -0.04429868499657
C          135.13875822495294        1.12865151291965        0.57678958695996
C          135.79113534323545        2.20375869928985        1.23276126867740
C          134.82832338991710        3.04502481809111        1.72072658604237
C          133.55930946033189        2.51124957742308        1.36802352430294
N          133.79820199697045        1.35061745374833        0.68107375974985
C          132.30119710841859        3.04030606696083        1.68354873470181
C          132.29389251521110        4.32753923243189        2.42211231305984
C          132.86087158716177        5.47454493680715        1.86119954064347
C          132.85444655164861        6.67626561649586        2.54695606412330
C          132.28358456114918        6.74472706257649        3.81654243251442
O          132.29896498659397        7.93827042659604        4.46369924262375
C          131.71806449090812        5.60829724108599        4.39024099326616
C          131.72216146165181        4.41077360241908        3.69219128964534
C          131.07311099523153        2.45824313419177        1.36506350635814
C          129.78936316720942        3.07179558016129        1.65379776306054
C          128.84691855327765        2.22478154279306        1.18996464882718
C          129.55621498272447        1.10157023427416        0.61093094900183
N          130.88886417006296        1.26998930184853        0.72490242881901
H          127.79735214295678       -2.26618691967859       -1.36297163872047
H          129.67489511851315       -3.90089971549529       -2.33622939393046
H          131.58210650157920       -0.69339120483467       -0.36153525622123
H          133.36162265512678       -3.46848016265686       -4.20043346570066
H          133.37658200737022       -5.60765597944895       -5.43937541905162
H          132.78642138221076       -7.81925603898107       -5.39009068558339
H          131.37709558158892       -7.51921758846737       -2.16980015898851
H          131.36883042773630       -5.37768010061325       -0.92350981729205
H          135.00817712949748       -3.97805582641116       -2.18525022374500
H          136.88350871730634       -2.28708362493939       -1.25993093769649
H          136.86027754306386        2.30856505672421        1.32299970762737
H          134.98278178722674        3.94922053103712        2.28647723571705
H          133.07572568735665        0.73997497592168        0.31440761612525
H          133.29311797118035        5.42543287590045        0.86796077987672
H          133.28607238006728        7.56878864507018        2.11109757464913
H          131.87267618888418        7.87550278763452        5.32898946460659
H          131.27868175511094        5.66502265718738        5.38037980048081
H          131.29265701735116        3.52397206019388        4.14473388152258
H          129.64923349546729        4.02864545744827        2.13003105128582
H          127.77416962779219        2.33134091513283        1.21569224206466
C          142.36604786105480        0.00618708240659        0.00804829372662
C          142.99322622317251       -1.09281715225795       -0.61156404807472
C          142.34413571864795       -2.17069649404621       -1.26627846012699
C          143.30948793504183       -3.01071613498841       -1.75134047165713
C          144.57683905215754       -2.47323800290439       -1.39819382810418
N          144.33443056676660       -1.31181052703757       -0.71385287573173
C          145.83646146092491       -3.00006848478519       -1.71112334479287
C          145.84748925095198       -4.29068188530665       -2.44380520729799
C          146.41922016324813       -4.37924536926258       -3.71347818908497
C          146.42737711468911       -5.58086184504885       -4.40450822607140
C          145.86608149005647       -6.71593833680871       -3.82404533684409
O          145.85508270434607       -7.91340949204646       -4.46407137667790
C          145.29499037727319       -6.64205207284664       -2.55487175998201
C          145.28441895509093       -5.43635396081761       -1.87622741229609
C          147.06282811910401       -2.41388759571580       -1.39348456632308
C          148.34837801565399       -3.02451087932500       -1.68035219229170
C          149.28823303752449       -2.17450499002755       -1.21679974809229
N          147.24344217884357       -1.22397420628733       -0.75546382435265
C          148.57560443379722       -1.05222654533662       -0.63997486578573
C          149.23365332443231        0.03786623393066       -0.03435176613405
C          148.60666823259538        1.13573014796381        0.58747182588087
C          149.25609696201946        2.21265852597161        1.24347146964210
C          148.29096008695993        3.04775619497607        1.73736450814026
C          147.02328247304069        2.50896978465285        1.38737590893517
N          147.26538215685534        1.35159437765114        0.69609327453271
C          145.76357665337315        3.03097215896906        1.70818680520388
C          145.75154452723496        4.31216101516028        2.45727133760972
C          146.31128090908757        5.46720277593432        1.90577880339777
C          146.30067994795911        6.66230498697575        2.60303257536734
C          145.73294221982908        6.71586554628688        3.87473604935447
O          145.74460392397665        7.90313410917225        4.53341321812893
C          145.17402012546125        5.57139249082791        4.43881451616079
C          145.18215080871192        4.38065826254855        3.72930122942501
C          144.53730416187096        2.44707869551105        1.38609521265529
C          143.25196354215845        3.05691307155075        1.67563101063449
C          142.31191934567551        2.21205237472766        1.20311337759860
C          143.02422758762279        1.09277955972443        0.62005346986994
N          144.35633125482417        1.26207566292832        0.73903254686707
H          141.27533372644584       -2.27812315946594       -1.35753911081963
H          143.15796715028279       -3.91642908566466       -2.31547516230039
H          145.05510441086881       -0.69905707868582       -0.34715447385532
H          146.84558678266563       -3.49365420718515       -4.17132635761473
H          146.86681461278135       -5.64186634399061       -5.39437183310471
H          146.28116614940433       -7.85426366086398       -5.32971189788873
H          144.86659837316319       -7.53351744243131       -2.11369152948304
H          144.85203129714318       -5.38282437259400       -0.88327897550971
H          148.49144057516580       -3.98149860527119       -2.15543590247751
H          150.36124929785839       -2.27851848689552       -1.24149330887902
H          150.32503177820556        2.32235634601817        1.33033645057889
H          148.44305260362685        3.95119298373238        2.30496977525679
H          146.54442553191089        0.73846540379712        0.33057820879234
H          146.74109070853643        5.42976352113177        0.91098242461418
H          146.72674968825808        7.56107457665536        2.17460671711103
H          145.32184402188574        7.82980713500670        5.39961114731221
H          144.73666463796451        5.61655193580938        5.43044849890006
H          144.75763084022586        3.48759617921776        4.17417859408265
H          143.10937841210992        4.01047751334030        2.15770480979532
H          141.23899281457648        2.31730347562568        1.22640506001281
C          155.83745053321309        0.03486716954372        0.00603488590937
C          156.46839086135296       -1.07474236658697       -0.58979498238070
C          155.82354961485106       -2.16627660329662       -1.22639757514386
C          156.79178524790012       -3.01606733399341       -1.68753720486042
C          158.05717085730339       -2.47185385660757       -1.33640247774759
N          157.81023473562948       -1.29574265837609       -0.67909703704659
C          159.31865869967095       -3.00755188057302       -1.62326215951844
C          159.33945342147993       -4.31309997394872       -2.32808694964987
C          159.93761995333028       -4.42732844877078       -3.58368393023900
C          159.95896488180949       -5.64210484707785       -4.25073003094040
C          159.38418861969811       -6.76506562330891       -3.65995495946830
O          159.38606216543826       -7.97501807352660       -4.27629746492720
C          158.78632590358444       -6.66563430354343       -2.40495814285468
C          158.76301225942822       -5.44686008489767       -1.75024257602931
C          160.54256700834804       -2.41431425878057       -1.30550443461117
C          161.83036010371040       -3.03794613937844       -1.55377965148175
C          162.76645794234574       -2.17294125411008       -1.11154471410517
N          160.71718314430979       -1.20372514901498       -0.70918583635117
C          162.04961739106059       -1.02756496849447       -0.58723226814599
C          162.70092247293323        0.09085010567983       -0.03303354910168
C          162.07153842391190        1.21356803311348        0.53531078309995
C          162.71759549109944        2.31985892848514        1.14553928622761
C          161.75005431520893        3.16483833579949        1.61593605652509
C          160.48347483734645        2.60358762820878        1.29648058780847
N          160.72900824502946        1.42482472530068        0.64447677621207
C          159.22243020983683        3.12337865946169        1.61434834420675
C          159.20629804196926        4.42368584233347        2.32978100507734
C          159.74975962753823        5.56900484111497        1.74297729553532
C          159.73848382004965        6.78077267633663        2.41086290672010
C          159.18630849656824        6.86127394002083        3.68798572756508
O          159.19747219993900        8.06430304393917        4.31736771225111
C          158.64291213322920        5.72697594141989        4.28670998203797
C          158.65179201495974        4.51920798895306        3.60660368024635
C          157.99877477931028        2.51960439493399        1.31959415604326
C          156.71062408607548        3.12585871309033        1.60454036449927
C          155.77414059106198        2.26370044434670        1.15707509402347
C          156.49128927284127        1.13690498827192        0.59440518759556
N          157.82284413176237        1.31842109077450        0.70206353184624
H          154.75534639784715       -2.27549092139571       -1.32257404156369
H          156.64392233384461       -3.93321896261913       -2.23389721919554
H          158.52847909473363       -0.67487645738147       -0.32139675229366
H          160.37494421204678       -3.55127071655902       -4.04948672668828
H          160.41946636836499       -5.72292749334486       -5.22953941986101
H          159.83050144219453       -7.93271373639510       -5.13367456131825
H          158.34781441228617       -7.54797294397031       -1.95544775652807
H          158.31058925099404       -5.37393935816822       -0.76751060234252
H          161.97687453168027       -4.01288227110409       -1.98970709699688
H          163.83943216177741       -2.27943805785300       -1.11988607629053
H          163.78630785597335        2.44008454888813        1.22049782305772
H          161.89938730301805        4.08936880364361        2.14925583465591
H          160.01014388928533        0.79259717123907        0.30857131599472
H          160.16765687805568        5.51028400384776        0.74413603653980
H          160.15251403864644        7.67183956869225        1.95540143297430
H          158.78818674377990        8.00869763110327        5.19131701897078
H          158.21744951268326        5.79319073488996        5.28231920291695
H          158.23993019548294        3.63412767803568        4.07852575377778
H          156.56402652038571        4.08879376248816        2.06636214042762
H          154.70061503355606        2.36136194333285        1.18517758042183
