169
 energy: -293.658917832362 gnorm: 0.000463447851 xtb: 6.5.1 (b24c23e)
Zn          24.69549320270640       -0.02458126639052       -0.01454093429745
C           21.28442687990613       -0.05642782605599       -0.04628675654426
C           21.91380456587794       -1.28803405203306        0.08856714711839
C           21.23926707592737       -2.54660455742213        0.24384074510418
C           22.19774027144628       -3.49843622050195        0.36608275746649
C           23.47105602851069       -2.83313153417264        0.27869763764505
N           23.26321760370712       -1.49488418080698        0.11578843650399
C           24.72173757586711       -3.45364444612420        0.38430694224850
C           24.73181974235855       -4.92754388769111        0.54952066763409
C           25.25745850440365       -5.52749089684871        1.69334236415674
C           25.24158072688411       -6.90921061139992        1.80042475871628
N           24.74907919481761       -7.70389295924656        0.85541376517154
C           24.24781695390759       -7.14038942639434       -0.23925507520043
C           24.21457365684687       -5.76890010479394       -0.43525424677048
C           25.96170173398409       -2.80659236429063        0.34476966072037
C           27.24093420371516       -3.45766916539566        0.41363545323869
C           28.18805821527326       -2.49070234548734        0.31219632893600
N           26.15645716201934       -1.45972411259492        0.19399183039254
C           27.49896428131363       -1.24136552190736        0.17194734405590
C           28.13066231147232        0.00715813761774        0.00670718284940
C           27.47796009041673        1.24473503408096       -0.15813292041953
C           28.14552981050282        2.49973199476467       -0.34417119588624
C           27.18218627004324        3.44970361425932       -0.45349804841071
C           25.91468835344341        2.78403532425184       -0.32864922500203
N           26.13212815054849        1.44290531816542       -0.16038909280675
C           24.66380743161028        3.40771048951522       -0.39702707301205
C           24.65139334739423        4.88275591779845       -0.54813888307476
C           24.08174673533054        5.49476192849094       -1.66428603429121
C           24.09561948702114        6.87739158724861       -1.75860585503855
N           24.62652934602248        7.66225851866739       -0.82637679702763
C           25.17005808514174        7.08740290010702        0.24187369943730
C           25.20839950400360        5.71408190304616        0.42336455794943
C           23.42321321080174        2.76162554992359       -0.33269495772280
C           22.13889482438519        3.41073520704423       -0.36329135569702
C           21.19684714607083        2.43942607152901       -0.27010946502086
C           21.89271032366395        1.18684725262771       -0.17054673389507
N           23.23830385503859        1.41611431871454       -0.20574580875703
H           20.19881898540307       -0.06540333040777       -0.04318658246356
H           20.16805249778485       -2.67274413259323        0.26286313763986
H           22.05975170192182       -4.55736794730059        0.51526445224241
H           25.65883342246546       -4.91930103335559        2.49538254069832
H           25.64158465875229       -7.39863295187763        2.68377649981319
H           23.85526818038648       -7.81541515032492       -0.99439013326773
H           23.80658007670392       -5.35472870637121       -1.34972549449380
H           27.39347569733104       -4.52021113935190        0.51355235958597
H           29.26019758624377       -2.60623694356010        0.32334312832371
H           29.21523080702152        2.62887516558805       -0.38927527809355
H           27.31590500163530        4.50678440300302       -0.61772042803731
H           23.64852174447249        4.89500042089730       -2.45595011231303
H           23.66186845832752        7.37592845162987       -2.62065051101762
H           25.59359907502803        7.75445757254181        0.98715260360025
H           25.65142353785676        5.29062945696017        1.31698989526160
H           21.98276543857526        4.47522509678659       -0.43459465143825
H           20.12378511410594        2.55002785001165       -0.26073985865810
Zn          51.66695068401120        0.03903104734490       -0.01210945381813
C           55.07828905519671        0.05225964954253       -0.06823972226192
C           54.45095843812206        1.26992657524623       -0.30251202512506
C           55.12726185795255        2.51691811235401       -0.52780357377439
C           54.17008162098035        3.46302125570852       -0.69610833042543
C           52.89591558910679        2.80289334823560       -0.58527630329868
N           53.10187159441733        1.47706021228858       -0.33961604072852
C           51.64556524413020        3.42536580012349       -0.68233463046246
C           51.63588364823340        4.88138717855960       -0.96425520372077
C           51.09774380514518        5.79217041653866       -0.05555129736445
C           51.11493407837371        7.14366482175969       -0.36192814490985
N           51.61994658996777        7.62378289901437       -1.49403934754271
C           52.13260339161265        6.76231547964191       -2.36707423263589
C           52.16579214369764        5.39427900103610       -2.14798005335380
C           50.40477060533824        2.79520797601394       -0.53725888097520
C           49.12670920249055        3.43419029262409       -0.68920909808917
C           48.17811825296148        2.48360112058517       -0.49163786545859
N           50.20809940064888        1.46843078368913       -0.26195004315192
C           48.86532301677697        1.25427956966379       -0.22390414097944
C           48.23141360798751        0.02245879947097        0.03381799705689
C           48.88241810367509       -1.20232273135867        0.28168650940352
C           48.21286104652033       -2.44932565580912        0.50946001968452
C           49.17502300800231       -3.39089467028635        0.68311229931726
C           50.44392987859406       -2.72555730857399        0.57152181732491
N           50.22811290564706       -1.39704712757742        0.32052695231292
C           51.69419766523350       -3.34632111523430        0.66981176868657
C           51.70666149535688       -4.80054632217228        0.95983992451392
C           52.25284113696005       -5.71417159027385        0.05873339975454
C           52.23922138046262       -7.06412427170390        0.37183317411507
N           51.73006640126251       -7.54041532765028        1.50358954187878
C           51.20966649800588       -6.67639070298298        2.36938677930849
C           51.17314870823993       -5.30952802588825        2.14352820170351
C           52.93513387981394       -2.71599201277231        0.51659033251457
C           54.21881536063288       -3.34991024618714        0.66492344093521
C           55.16217366059743       -2.39824520270686        0.45517437724264
C           54.46790096807782       -1.17015207272769        0.18538403466890
N           53.12186193187044       -1.39467397672018        0.23391549180741
H           56.16390736779955        0.05871620406463       -0.07322362314615
H           56.19864166078995        2.64191648175935       -0.54529269115554
H           54.30957272532540        4.51822053904495       -0.86849634824326
H           50.68563019727019        5.44772977344290        0.88566508483466
H           50.70554254614924        7.87192714076780        0.33230179345207
H           52.53497520054526        7.18426044377764       -3.28363387063970
H           52.58344181079612        4.72868978502464       -2.89419160500905
H           48.97620981123403        4.47435045487259       -0.92935639553078
H           47.10621299009713        2.59628755765984       -0.52722235851249
H           47.14265706872412       -2.58124331861670        0.52514924412171
H           49.03916718542088       -4.44602400297985        0.85771173679795
H           52.66770362553517       -5.37308770685952       -0.88240559922471
H           52.65456783970662       -7.79440409136676       -0.31665248446639
H           50.80396739718972       -7.09517998109022        3.28580167928673
H           50.74962866426443       -4.64186178302442        2.88444442776790
H           54.37363537122819       -4.38808519082532        0.91155854323910
H           56.23524442374958       -2.50498999858286        0.48531439564377
C           30.75993845843331        0.02228233366985       -0.01579466345673
C           29.53811343138587        0.01698889503232       -0.00397769547638
C           32.11074498874597        0.02358200856285       -0.02646562910061
C           33.33267566046823        0.02187153499965       -0.03614465355912
C           44.25175570372759        0.00562411827429        0.01241924313788
C           43.02970875898494        0.00468654722214       -0.00029119922228
C           45.60230491705597        0.00868987264655        0.02211784754177
C           46.82427913780141        0.01362840240099        0.03165639844529
Zn          38.18141782299084        0.00236353356469       -0.03185784285417
C           34.73968450992881        0.01530416593714       -0.03852967496944
C           35.37862643546850       -0.89902145382988        0.82248427758605
C           34.69671954528999       -1.79063490603939        1.71358514870148
C           35.64931500715556       -2.49736209304705        2.37403180966737
C           36.92331169455286       -2.04985020090713        1.88439039525804
N           36.72199193914658       -1.07198060672365        0.94765671944852
C           38.16755504730504       -2.52024847261774        2.31808869525472
C           38.16289715162213       -3.59586171248614        3.33957727550574
C           37.60517549684838       -4.84654171669605        3.07707544744527
C           37.62659316722146       -5.81735263975725        4.06603389554226
N           38.15322657865019       -5.61453170200040        5.26949069422114
C           38.68511814929829       -4.42427182359667        5.52886137705435
C           38.71611263591969       -3.39310575324872        4.60354231103950
C           39.41665302780345       -2.06523402819864        1.88173884657822
C           40.68504821669178       -2.59448534118855        2.29897266838880
C           41.64562433313799       -1.89158291870557        1.64588662148673
N           39.62904147170870       -1.06324567220251        0.97353525073401
C           40.97414218500884       -0.93325037181524        0.81855390595091
C           41.62310639473368        0.00204804147964       -0.01204937759837
C           40.98377641927926        0.93371456820553       -0.85408857594743
C           41.66505820280693        1.88645680561906       -1.67989972151872
C           40.71238577023230        2.58425233322751       -2.34980200895778
C           39.43891338391274        2.05888947136107       -1.94301485492094
N           39.64056289064650        1.06287078673910       -1.02581871615703
C           38.19495979861716        2.51492037091101       -2.39323603189705
C           38.20300919156728        3.58408165165448       -3.42141293112488
C           38.76925197566658        3.37300605824779       -4.67826340832293
C           38.75054729404714        4.39901219469171       -5.60966911718595
N           38.21836619284291        5.59181347093728       -5.36292883738590
C           37.67918064487946        5.80255991806999       -4.16641651373579
C           37.64532569920018        4.83754991366519       -3.17216835595902
C           36.94539248234877        2.05367665745803       -1.96459367642363
C           35.67643792728727        2.50676021934653       -2.46246424159097
C           34.71613929040040        1.81228811709984       -1.80011738993277
C           35.38815837730812        0.92116796763827       -0.90110069342850
N           36.73328020807835        1.08309729334837       -1.02270833538859
H           33.62569538929419       -1.85656294141867        1.82066795233452
H           35.50352917441109       -3.24771049712523        3.13423915051194
H           37.17462980040992       -5.06115529328120        2.10618448524419
H           37.20241011653100       -6.80040475967533        3.88331424604841
H           39.10519214966056       -4.28792108598080        6.52117349599438
H           39.15048468641172       -2.43496486010131        4.86318323926825
H           40.82157913170590       -3.40787528720825        2.99321814655527
H           42.71562015537724       -2.00997419903800        1.70929142892369
H           42.73577025043921        2.00402097896372       -1.73180737749667
H           40.85744091490373        3.39200655451921       -3.04888870496549
H           39.20432025439246        2.41254733248455       -4.92798708735024
H           39.18125802541680        4.25623336060120       -6.59650359946524
H           37.25501572628536        6.78745196589570       -3.99387124541379
H           37.20532825730118        5.05884728987509       -2.20703783665993
H           35.53889883133374        3.25240213048781       -3.22881577015939
H           33.64597393154691        1.88518751556409       -1.91141119744286
