238
 energy: -419.017117181237 gnorm: 0.000811157704 xtb: 6.5.1 (b24c23e)
Zn          29.35083291898086       -0.01919875383990       -0.01198925520613
C           25.94040177752450       -0.05037540841168       -0.03235519754392
C           26.56970608842804       -1.28195110793899        0.10271628923925
C           25.89518539016676       -2.53956935979094        0.26470095087676
C           26.85365972596155       -3.49277487278245        0.37591145041547
C           28.12677905536788       -2.82921615777097        0.27441246303026
N           27.91915181553701       -1.49042079631194        0.11702774677782
C           29.37806871120682       -3.45275073563881        0.35642042745702
C           29.38825347457966       -4.92738483067391        0.51312487518297
C           29.93961788155712       -5.53386926442703        1.64136497141722
C           29.92146999254246       -6.91588723851401        1.74354532815607
N           29.40308039665498       -7.70502969871465        0.80789232982588
C           28.87781999991711       -7.13547634110928       -0.27218960045129
C           28.84483831073628       -5.76308753181861       -0.46220693178873
C           30.61803464023859       -2.80719926671616        0.30250584916752
C           31.89717232409216       -3.46108791335298        0.34028107866944
C           32.84413295853957       -2.49337974947115        0.24518050268885
N           30.81273742360237       -1.45785696242519        0.17266176212516
C           32.15472152273283       -1.24078251371970        0.14033419447987
C           32.78696078212571        0.01220782710223        0.00774655209118
C           32.13364641841927        1.25367124587489       -0.12992385851124
C           32.80154188932580        2.51179007281715       -0.29221976479114
C           31.83810781380111        3.46177462566326       -0.40015690982563
C           30.57035177981518        2.79290657711711       -0.29734184385038
N           30.78810679760540        1.44990264331580       -0.14122258581417
C           29.31963158541322        3.41429626944224       -0.37819421565248
C           29.30460845127552        4.88925614218240       -0.53284520967230
C           28.75536049833799        5.49395619813845       -1.66306885281579
C           28.76375058394694        6.87627144647287       -1.76226104579405
N           29.26999803740405        7.66718739659938       -0.82151261498493
C           29.79377521307537        7.09920790979573        0.26012734839834
C           29.83642157775800        5.72665557948335        0.44723446873384
C           28.07915361355964        2.76663567702016       -0.32557738108189
C           26.79491388618472        3.41508749617169       -0.36631421806542
C           25.85274896454349        2.44399099441587       -0.27179320517393
C           26.54856746139835        1.19220409679796       -0.16339449562444
N           27.89428783690398        1.42160764174388       -0.19520168695651
H           24.85481424570439       -0.05893345847100       -0.02543555850963
H           24.82408525252168       -2.66428354315028        0.29509422256717
H           26.71570119484187       -4.55152239017545        0.52623116563226
H           30.36240984120191       -4.93023623834618        2.43570666795798
H           30.34108796599920       -7.41019563890880        2.61493139841854
H           28.46438330870570       -7.80603636851670       -1.01997537856033
H           28.41665375223799       -5.34410650091753       -1.36511855816400
H           32.04944268510275       -4.52565443641034        0.41591195200754
H           33.91613218427416       -2.61023362714921        0.23881499690225
H           33.87145820299189        2.64266311078681       -0.32478510017101
H           31.97182601238044        4.52107563243180       -0.54929444431630
H           28.34165867351629        4.88881320969399       -2.46105357374048
H           28.34579782993376        7.36928215211168       -2.63519551229476
H           30.19715820565485        7.77130902848984        1.01199055706676
H           30.26288558407533        5.30879675261584        1.35146118571569
H           26.63904670082213        4.47910919145797       -0.44472087248364
H           24.77963577022461        2.55422272443315       -0.26785237002381
Zn          85.22437104346480        0.02756114449413       -0.01535607352005
C           88.63483969447645        0.04681792146115       -0.05217736395044
C           88.00669704968385        1.26472163837658       -0.28283104634840
C           88.68235455959169        2.51388703276746       -0.49706351058192
C           87.72472167521110        3.45880785819531       -0.66945011138176
C           86.45100700150896        2.79582275632965       -0.57177056984565
N           86.65743768643438        1.46961530467587       -0.32925987267961
C           85.20016659755393        3.41653743415346       -0.67830725583260
C           85.19085797429808        4.87245056313673       -0.96001771285589
C           84.63762396432506        5.78197282304949       -0.05916286833819
C           84.65716492439567        7.13366575325799       -0.36448870280707
N           85.17845996829949        7.61525490433078       -1.48843671114001
C           85.70526294476463        6.75511719419561       -2.35417114902934
C           85.73716960661291        5.38696234352767       -2.13548206949170
C           83.95969320976837        2.78416512943069       -0.54228394760046
C           82.68124477782285        3.42036987974593       -0.70328313338529
C           81.73338171689866        2.46864955227398       -0.50817488151432
N           83.76374510152638        1.45721360502910       -0.26602400582505
C           82.42158571798765        1.24122962405618       -0.23422767638941
C           81.78803550737645        0.00742901141844        0.01857862894808
C           82.44031187177340       -1.21842879078812        0.26136365727883
C           81.77130348936136       -2.46634582036272        0.48576728964438
C           82.73395865088787       -3.40715238384749        0.66048492363147
C           84.00238828300908       -2.74041524657755        0.55236799132532
N           83.78571670589049       -1.41137589088210        0.30290626792313
C           85.25255795681004       -3.36024408790407        0.65153431139292
C           85.26652681484113       -4.81537286224762        0.93815508607831
C           85.80762190004927       -5.72688023116238        0.03200260361523
C           85.79812365290454       -7.07725358080541        0.34359220422300
N           85.29827559205698       -7.55546960981669        1.47862256444381
C           84.78247461007554       -6.69337666101931        2.34903957242174
C           84.74160865322887       -5.32634654542305        2.12471473634644
C           86.49346160492337       -2.72831533461309        0.50377672588056
C           87.77721359835627       -3.36235034297640        0.65001022776155
C           88.72023171716484       -2.40808503743538        0.45066229550501
C           88.02547687351354       -1.17857393673968        0.18896325765794
N           86.67951599514302       -1.40488014532559        0.23139680560920
H           89.72044789276377        0.05544917470552       -0.05071351992250
H           89.75357656943346        2.64098167549470       -0.50517475447325
H           87.86368051721990        4.51498580980381       -0.83603119629712
H           84.21231161975736        5.43644267832607        0.87562718532345
H           84.23603358783166        7.86084464354416        0.32368952055286
H           86.12108308178519        7.17818083370998       -3.26404384005582
H           86.16681745748637        4.72263545457472       -2.87588700619219
H           82.53009727016178        4.45936155390703       -0.94794359770774
H           80.66152473717553        2.57893041808073       -0.55094207485471
H           80.70120017163595       -2.59907221243139        0.49914145805207
H           82.59917688834122       -4.46252648863126        0.83443271374285
H           86.21585048425879       -5.38399301855611       -0.91134795938700
H           86.20960185284156       -7.80608399840997       -0.34868897578955
H           84.38433648856790       -7.11381351442218        3.26797825836143
H           84.32179123642892       -4.66012415272927        2.86902349965068
H           87.93222520048306       -4.40262595930276        0.88746748075657
H           89.79330528711395       -2.51415378823983        0.48232982047186
C           34.19228104432863        0.02231767825812        0.00136263008415
C           35.41698804027817        0.02734795937917       -0.00162504076266
C           36.75975010587704        0.03140596804612       -0.00618835527873
C           37.99059056426560        0.03299097735188       -0.01196408792552
C           39.32856439265533        0.03319515276530       -0.01850265482797
C           40.55949242885629        0.03227708180873       -0.02502608936013
C           41.90205880742015        0.03022013154603       -0.03162561936637
C           43.12696481658378        0.02502592581375       -0.03644416786908
C           52.82016579598704        0.01806557369337       -0.03161657450072
C           54.04541925979989        0.01857764241439       -0.03075021347583
C           55.38754184152214        0.01793123903286       -0.02993450438401
C           56.61877425329539        0.01666242070573       -0.02957443245128
C           57.95619096088051        0.01133255281204       -0.03152477917926
C           59.18737990223865        0.00716217059878       -0.03415684457966
C           60.52947762668643        0.00260032172365       -0.03387708981008
C           61.75471309158360        0.00020513914905       -0.03426551204517
C           71.44803917306305       -0.00380922758813       -0.02055816832093
C           72.67309691805393       -0.00602394243313       -0.01427530002353
C           74.01558044440942       -0.00767245155695       -0.00714360466205
C           75.24649479715980       -0.00626989143905        0.00128540146440
C           76.58436830409744       -0.00420051866787        0.00898057474820
C           77.81529212937448       -0.01092783746682        0.00919038190625
C           79.15798018274941       -0.00612950081464        0.01500719926742
C           80.38280175508132       -0.00187976947026        0.01874049146259
Zn          47.97372468151499        0.01605648593440       -0.04019219897919
C           44.53166133417093        0.02199504215847       -0.03908271814903
C           45.17493134688449       -0.87566918268581        0.83729915602941
C           44.49676419591380       -1.75763323969201        1.74045981906244
C           45.45236485804993       -2.45604174832357        2.40552160773937
C           46.72407541329474       -2.01196717434526        1.90725087836924
N           46.51859083986628       -1.04478446039102        0.96023251689780
C           47.97009351844334       -2.47564758398605        2.34314566999913
C           47.96788071139106       -3.54911737846064        3.36717085773428
C           47.41754730499755       -4.80246729880348        3.10156039127153
C           47.44118613481309       -5.77433391262053        4.08939012074622
N           47.96290850330119       -5.56972959763266        5.29463912916960
C           48.48705414262140       -4.37679972457639        5.55712776867329
C           48.51557396854245       -3.34429844972565        4.63301327761957
C           49.21737278819491       -2.02013265906614        1.90291647427354
C           50.48784774862416       -2.53759612289318        2.32820323294760
C           51.44550988759975       -1.84064808268718        1.66453356535772
N           49.42589405874901       -1.03004802140409        0.98018462403356
C           50.76992000742242       -0.89859131007475        0.82212031748902
C           51.41598609648786        0.01764346921044       -0.03325335717042
C           50.77239508342738        0.93177213602937       -0.89268443690351
C           51.45048189066374        1.87144966204434       -1.73570279547480
C           50.49488087577049        2.56351910382312       -2.40738053096726
C           49.22320800587743        2.04612779903280       -1.98555865956820
N           49.42892081191869        1.06066968905762       -1.05732237250153
C           47.97735027082729        2.49835731347912       -2.43328889306368
C           47.97924306607540        3.56248206057977       -3.46692538298015
C           48.53394072749628        3.34578762014028       -4.72778572246216
C           48.50911522719689        4.36893516574081       -5.66233381592050
N           47.98202579876927        5.56371538243956       -5.41460390643953
C           47.45382580640584        5.77972149346507       -4.21416479559517
C           47.42630088283810        4.81784669658556       -3.21670117148652
C           46.72988269063562        2.03906003531937       -1.99674697774990
C           45.45940199973128        2.48344848795042       -2.49789167823442
C           44.50179249795939        1.79254925508594       -1.82784471983982
C           45.17740641376716        0.91444022320581       -0.91903799330827
N           46.52160164271504        1.07806385992930       -1.04400523355414
H           43.42616397780967       -1.82355516088560        1.85138015813204
H           45.31028168843195       -3.19838175743364        3.17422127230096
H           46.99091125418590       -5.01799229505378        2.12913724667360
H           47.02298514180876       -6.75947050490397        3.90419932150787
H           48.90301961433047       -4.23930089843897        6.55098006535038
H           48.94373359635081       -2.38410015686365        4.89523572385698
H           50.62777618516647       -3.33927303881660        3.03523763136167
H           52.51595494479712       -1.95356638480449        1.72955001232107
H           52.52102948304954        1.98602049235902       -1.79598735110579
H           50.63693434822193        3.36228125907457       -3.11727789519455
H           48.96463980633632        2.38355769418159       -4.97816887321860
H           48.93052152603899        4.22199053520751       -6.65253958940440
H           47.03352295124517        6.76615282134651       -4.04105057271261
H           46.99478624417049        5.04276757952694       -2.24857645591214
H           45.31929569955746        3.22091730448359       -3.27161857665481
H           43.43136870693814        1.86110650182922       -1.93883364409403
Zn          66.60106032054277       -0.00534409847679       -0.03166480333715
C           63.15888154936808       -0.00248917198297       -0.03438768230175
C           63.80222960098291       -0.89448817274643        0.84821888918001
C           63.12403477359950       -1.77025418023144        1.75738428111469
C           64.07957016963188       -2.46562047631905        2.42577466944174
C           65.35126645909163       -2.02632799511147        1.92324334476478
N           65.14567843372815       -1.06381206290384        0.97116368575225
C           66.59712429894643       -2.49133959781653        2.35758113843860
C           66.59613749154629       -3.55955475068627        3.38699085568634
C           66.03972829956396       -4.81225991973912        3.13120915565572
C           66.06599094033676       -5.77913500193671        4.12385333638917
N           66.59594601854745       -5.57031697937163        5.32478816222946
C           67.12584886000479       -4.37792520794817        5.57798566685887
C           67.15225502615746       -3.35024846818726        4.64846351647725
C           67.84452697174086       -2.04135893698731        1.91129596650350
C           69.11462875062554       -2.56292075809132        2.33258452658194
C           70.07243772989777       -1.86871036946683        1.66625181260754
N           68.05310789010477       -1.05239608063404        0.98771903805262
C           69.39722945399720       -0.92416965485795        0.82640760249740
C           70.04346094607641       -0.00460483114854       -0.02492250080882
C           69.40029355733368        0.91385176313320       -0.87966983184129
C           70.07834083222539        1.85837652655501       -1.71723732411160
C           69.12281964194695        2.55147472038613       -2.38803293911861
C           67.85127973544780        2.02993155462160       -1.97102386455310
N           68.05672900455610        1.04146254603518       -1.04622998885441
C           66.60533093642842        2.48048602246885       -2.42085081083026
C           66.60752890959159        3.54887754356702       -3.45007822587247
C           67.16649979671439        3.33933722285363       -4.71025362712472
C           67.14227109054941        4.36686523140344       -5.64000178707326
N           66.61193642158855        5.55936341614074       -5.38818527099265
C           66.07954053414618        5.76851153929816       -4.18839524251177
C           66.05096669041654        4.80180031045552       -3.19565098443067
C           65.35799642447938        2.01671461522939       -1.98935844441918
C           64.08781539575006        2.45846097005554       -2.49359360777328
C           63.13004516946613        1.76460003686689       -1.82684646866615
C           63.80528693504072        0.88756728186472       -0.91671859399275
N           65.14924582455026        1.05402807216387       -1.03812575553414
H           62.05346961158328       -1.83450744496403        1.86960909589860
H           63.93746727330557       -3.20294945178128        3.19928211379291
H           65.60668237147024       -5.03128941812790        2.16241682518507
H           65.64337894283815       -6.76377346990135        3.94621236516546
H           67.54854245990130       -4.23687361947972        6.56849930421450
H           67.58550643638465       -2.39030056431863        4.90316424954475
H           69.25428213268678       -3.36532473435121        3.03883651542470
H           71.14270942761837       -1.98498781851711        1.72804744362443
H           71.14881829220424        1.97495263742850       -1.77493178535999
H           69.26483386204561        3.35334220936379       -3.09443089016208
H           67.60014248988941        2.37927149451650       -4.96384018396491
H           67.56716948782648        4.22562082867887       -6.62954249859093
H           65.65656046171455        6.75319724839990       -4.01186905224647
H           65.61590461796513        5.02113490334324       -2.22782906835858
H           63.94806079243993        3.19656507230404       -3.26678353235058
H           62.05975937347237        1.83096763665984       -1.94050394883367
