326
 energy: -574.918794125754 gnorm: 0.000851128526 xtb: 6.5.1 (b24c23e)
C           56.44132272345131       -0.07394088784679       -0.12624447231395
C           57.05794237910791       -1.28594922835982       -0.40811413707724
C           56.41419631252123       -2.51133551717376       -0.73914473946667
C           57.38109639604171       -3.45970541186314       -0.91874597508349
C           58.64681177893527       -2.84580770858229       -0.69434872865459
N           58.40154261409880       -1.53490915669424       -0.40124612004297
C           59.91276108593328       -3.43740096279588       -0.77732702276884
C           59.94840124653927       -4.88733252259544       -1.08012840221945
C           60.58997901259223       -5.35591177345822       -2.23087335761005
C           60.61477049843323       -6.70767036897123       -2.51457425053053
C           60.00371934967966       -7.62364432671794       -1.65170326360774
C           60.04413763098045       -9.06115849270218       -1.97623236853730
O           60.57512265362890       -9.51067321054497       -2.95936248342990
C           59.36568712785026       -7.15738324405412       -0.49976848190664
C           59.33581690762313       -5.80292726264365       -0.21958272275136
C           61.12579714318760       -2.76713791768000       -0.59792303280199
C           62.42471704004279       -3.41557977788138       -0.63460783199720
C           63.34077526525737       -2.44756365059503       -0.42668241461554
N           61.27382056880097       -1.43766100430361       -0.34784278810763
C           62.60016240430274       -1.21302168874292       -0.25103330126087
C           63.23070900479087        0.02684151303531       -0.02499849155486
C           62.58844669422406        1.25730330090327        0.20803926866274
C           63.22624227075347        2.50746648650736        0.42567068089090
C           62.25472663100448        3.44512636925868        0.64021257911756
C           60.99219786353597        2.79324156832931        0.56703029865279
N           61.24559587038706        1.47550071406746        0.29367906614704
C           59.72664523463146        3.37306729704631        0.71033037471444
C           59.68736927874085        4.81452311476597        1.04674205010134
C           60.28257414052432        5.28323890072773        2.22247816647003
C           60.23782441568111        6.62674252621358        2.54040838124082
C           59.60193607697703        7.53519938987580        1.68760489940600
C           59.56781194896640        8.96380020291934        2.04942368495103
O           60.06633985153384        9.41275579636605        3.04977364980516
C           59.01109151647757        7.06945516806364        0.51042557018782
C           59.05191340639325        5.72313708469866        0.19514928590359
C           58.51213410700564        2.69355860266079        0.56159891847151
C           57.20403285788863        3.29828641202556        0.76300395205604
C           56.29547882884800        2.33241824902810        0.52083167223456
C           57.04710498164334        1.13520219930314        0.18754692075213
N           58.37862654971227        1.38774943617958        0.23174194496761
H           55.35630962702145       -0.08430669940494       -0.14962900387664
H           55.34706311625813       -2.63615004823067       -0.83020984358018
H           57.23672448478635       -4.49224847902698       -1.19236746475727
H           59.12165449683431       -0.84654824020873       -0.20947280986149
H           61.05270803566910       -4.64751341860920       -2.90859366563798
H           61.10452124097370       -7.07842228366695       -3.40862108693778
H           59.53829675356839       -9.71104977708191       -1.23053083531464
H           58.89308537636475       -7.86121953453511        0.17764871228021
H           58.85141782153433       -5.44586835704489        0.68238525635655
H           62.59100010775533       -4.46980440740958       -0.78544676905906
H           64.41441584114114       -2.53561175154529       -0.38218350023397
H           64.29329022692581        2.66033986677666        0.41379388468290
H           62.39661866220837        4.49790473215075        0.82185209726478
H           60.52716758064047        0.76987839443996        0.16887840434222
H           60.76219816516254        4.58011012730239        2.89412757986991
H           60.69046489740610        6.99633852235409        3.45428309706982
H           59.03784554939994        9.60756586077340        1.31538571789489
H           58.52008843496712        7.76795317387953       -0.15937188810899
H           58.60488053062316        5.36727431029406       -0.72621358855513
H           57.02912428942002        4.31895912794666        1.06275450582094
H           55.21935032670186        2.39062977136860        0.56639729279800
C          127.30254764460732        0.09992524230561       -0.08006546225377
C          126.68471626669685        1.26436269484650        0.35699405644101
C          127.32649786355155        2.47335916483661        0.74683971568453
C          126.35880114010185        3.36098501595054        1.12404234347831
C          125.09462643859568        2.71949851833508        0.98432209788085
N          125.34148799392388        1.46293859962198        0.51035608815505
C          123.82826366119366        3.25665368938218        1.24325810862361
C          123.79124850023200        4.63689931441643        1.78104728284242
C          123.14900598576801        5.65763964218968        1.07335942668149
C          123.12276142485496        6.94459010332225        1.57487584761482
C          123.73273905103470        7.24029262683880        2.79857134348812
C          123.69085669983953        8.62118890746486        3.31300152691878
O          123.16121583039569        9.53530050650683        2.73463134445997
C          124.37148398545679        6.22073675700183        3.50846799686166
C          124.40311138336767        4.93357622125073        3.00237211499390
C          122.61625767116426        2.59330806233907        1.03428437620997
C          121.31690198059798        3.15608463679485        1.35673499834087
C          120.40229367800345        2.22555988409873        1.01485064859264
N          122.47000606936865        1.33786503758396        0.52984992738756
C          121.14429019699850        1.09189129539017        0.49727995678394
C          120.51544509521675       -0.08273395596229        0.03841772747311
C          121.15826984669310       -1.24535643169029       -0.42551493913065
C          120.52082938332804       -2.42160845887087       -0.90238162817035
C          121.49336822606494       -3.31707970488133       -1.25045869296390
C          122.75651689602338       -2.71683577825158       -0.98833864551590
N          122.50191454187349       -1.46361983837729       -0.49835344554008
C          124.02300364516466       -3.26704459198107       -1.21488699921919
C          124.06644617742882       -4.65448878947324       -1.73048727084811
C          123.50159473583459       -5.70269527301290       -0.99684811984216
C          123.55079875212554       -6.99700921836172       -1.47710704288480
C          124.16085121836562       -7.27386377960117       -2.70515005923511
C          124.20066168355388       -8.66327839989965       -3.19584076257720
O          123.72845785069543       -9.59739107211472       -2.59980556251158
C          124.72157488176586       -6.22730120420054       -3.44142194842373
C          124.67636368496501       -4.93221687173219       -2.95754702249337
C          125.23617572763605       -2.60528339050573       -0.99254484997415
C          126.54603225538492       -3.21035336609729       -1.18136683496192
C          127.45279936108192       -2.26359296522175       -0.86769780762288
C          126.69868121174355       -1.08638559055592       -0.47421660521027
N          125.36740326449164       -1.33202359699955       -0.55307757509873
H          128.38715811661135        0.12766532749394       -0.10774870843222
H          128.39288282041807        2.63215869423356        0.73074741142056
H          126.50147772408249        4.37511060376986        1.46030067740169
H          124.62247071246831        0.77906858262726        0.29928137168245
H          122.68680521213977        5.43452807061182        0.11846579240187
H          122.63241429080570        7.74333681528440        1.02881714403903
H          124.19552052071789        8.75767127361918        4.29330929271950
H          124.84331806853655        6.44015481423856        4.46075810061823
H          124.88836883662580        4.14194146650406        3.56230172706440
H          121.14937660312459        4.12573616922876        1.79660838184089
H          119.32886405688433        2.27284494192685        1.10384894311727
H          119.45319303972522       -2.55371873080509       -0.97177666346917
H          121.35148930144177       -4.30231250123336       -1.66355574509225
H          123.21985965882293       -0.79479418936336       -0.23977552613395
H          123.04238979177202       -5.49489490324827       -0.03691689332425
H          123.12166212004951       -7.81617144913694       -0.91012566965625
H          124.70797115081065       -8.78600154816623       -4.17651823930363
H          125.19253847001474       -6.43227355871934       -4.39734801479920
H          125.09998300172953       -4.12039730686488       -3.53797515847949
H          126.72335981876573       -4.22611011188729       -1.49602700629846
H          128.52942143276957       -2.32868677349672       -0.88080204140473
C           68.43399240989240        0.09737522970057       -0.04433260682785
C           67.20590150603988        0.08812913800936       -0.03790695117926
C           65.86094616605790        0.07183538999783       -0.03185073285199
C           64.63744122204831        0.05032604182454       -0.02608676149163
C           69.77887025544747        0.10109885658216       -0.04915107108351
C           71.00274716217992        0.09794328436217       -0.05030066809416
C           84.47186548350024       -0.02041412474347       -0.02424675072690
C           83.24299074927382       -0.01784300292553       -0.03077070349071
C           81.89958303275127       -0.01122953157359       -0.03444050325663
C           80.67513322390600       -0.00127443055031       -0.03986629778911
C           85.81527121585093       -0.02129123780393       -0.02091889064454
C           87.03979669199133       -0.02215613174352       -0.01522360172063
C          100.50396071059534       -0.04336823593813       -0.03160713398561
C           99.27504857453127       -0.04057925822392       -0.03635582185454
C           97.93165595562195       -0.03750897926244       -0.03519855118621
C           96.70715320841751       -0.03389048175574       -0.03208612760800
C          101.84734195658670       -0.04525247194010       -0.02940507219885
C          103.07180619469193       -0.04747348284596       -0.02161466216833
C          116.53967440563541       -0.13004632926210        0.03112118976778
C          115.31164188871719       -0.12937902474408        0.02374655929875
C          113.96658049303150       -0.12473313877761        0.01832799176239
C          112.74296185410148       -0.11279547798862        0.01326879047808
C          117.88492109413646       -0.12300352457542        0.03616775372372
C          119.10844431232623       -0.10841284841355        0.04034968755051
C           72.40861741310357        0.08700263618329       -0.04999435693945
C           73.04433010802042        1.01910186274789       -0.89213424482282
C           72.40453052878897        1.94128104558346       -1.76009582416004
C           73.37639317731524        2.66572459195762       -2.39436075325221
C           74.63876550846324        2.21267718312475       -1.92289358296441
N           74.38741925217710        1.21109250389043       -1.02439284456818
C           75.90395279890461        2.67306413836080       -2.30926834480346
C           75.93048953273050        3.79070975730647       -3.28281338070905
C           76.53592771878162        3.62450444749033       -4.53228421084537
C           76.56128967000049        4.66598544646216       -5.43949519474814
C           75.98693187956100        5.89994988991587       -5.11672217885799
C           76.03293885135484        6.99813054861920       -6.09949955152057
O           76.53882360904923        6.90086343125605       -7.18801209889660
C           75.38272688178859        6.06767318818556       -3.86848753926981
C           75.35218576645156        5.02222606130032       -2.96272628051567
C           77.12529134598786        2.17102973463790       -1.85595800065709
C           78.41578161313409        2.72181194399699       -2.23084141732217
C           79.34670529642914        1.97973509369235       -1.59672069293235
N           77.29339258496269        1.12933785697319       -0.99563735588851
C           78.62358622847258        0.98423814342998       -0.83014444267875
C           79.27093282805777        0.01110420959735       -0.04206190758395
C           78.63417641022227       -0.96132962316066        0.75331239675039
C           79.27300959032918       -1.96510329814447        1.52629792058054
C           78.30108200952543       -2.69234637125109        2.15701651612755
C           77.03975767566423       -2.14585733056115        1.79393381243370
N           77.29179657338051       -1.10899704138668        0.93626862081214
C           75.77524128298691       -2.58470359084029        2.20531529570534
C           75.75021273883659       -3.71138309766671        3.16836634775535
C           75.13316551774433       -4.91803580943090        2.82661833195338
C           75.11171289316543       -5.97253929833496        3.72189880905740
C           75.70270275952069       -5.83927134375643        4.98062529276254
C           75.69282878721295       -6.94721568541917        5.95341632752227
O           76.18876092211002       -6.87971749655527        7.04862343616345
C           76.31692452383228       -4.63056848339810        5.32452178937511
C           76.34345659680963       -3.58002912525318        4.42771410397401
C           74.55394826558023       -2.05057434226382        1.78893322381889
C           73.26462249269376       -2.49358178548900        2.28960136209929
C           72.33350914157823       -1.74877325066000        1.65900464584564
C           73.05544511097796       -0.84676276981581        0.78337365913995
N           74.38582314013740       -1.04301805206638        0.88993140615767
H           71.33704209344492        2.02789453032201       -1.88260464558632
H           73.23290111222866        3.43862740399008       -3.13156481729107
H           75.10353796321857        0.68410928299752       -0.53576628526078
H           76.97188693424135        2.66582758055417       -4.78943236457061
H           77.02453691355672        4.54344953283896       -6.41263320012925
H           75.55732349565656        7.94032080294547       -5.75281097421164
H           74.93791632235532        7.02271913073297       -3.60844247059901
H           74.89515007324896        5.16053646023822       -1.98928106737349
H           78.56707675544907        3.57000257221874       -2.87845756335048
H           80.41987216097600        2.08016635250080       -1.62223798451473
H           80.33985630587343       -2.10899873629505        1.58234174852589
H           78.44327972993263       -3.53882916277087        2.80865160337467
H           76.57707247877342       -0.53827481157563        0.49726798688522
H           74.68442981415286       -5.02821274088074        1.84586388793300
H           74.63564361076497       -6.90781130420144        3.44592824942741
H           75.18224055350801       -7.86570382885702        5.59331937545463
H           76.76911908446372       -4.53435469405868        6.30581041222770
H           76.80870076112537       -2.64010887189959        4.70263568310194
H           73.11440952531528       -3.25920347212026        3.03325615167016
H           71.26103271813537       -1.78070543507687        1.76467152823239
C           88.44394602419945       -0.01940933089976       -0.01395137336319
C           89.06905256406252        0.90818086676523       -0.87024288528727
C           88.41774299120482        1.81332099797974       -1.74737626523190
C           89.38022148058154        2.54796622722646       -2.38442626786958
C           90.64777519291248        2.11751185467277       -1.90637786002628
N           90.40912293963555        1.11819808825032       -1.00147479862833
C           91.90691129513161        2.59530294181380       -2.29102414201425
C           91.91885897395649        3.71232041312984       -3.26556912734542
C           92.52717483403224        3.55432043437018       -4.51464149928370
C           92.53642210871725        4.59529599160372       -5.42279526321609
C           91.94302218215893        5.82051659598561       -5.10125488026680
C           91.97051890205434        6.91771559137797       -6.08607248473345
O           92.47806418126133        6.82687441493259       -7.17432056226641
C           91.33686860187021        5.98038065059388       -3.85296885726507
C           91.32220863801025        4.93530852994610       -2.94636960989004
C           93.13392785609270        2.10984882103404       -1.83509308927470
C           94.41816660178317        2.67427964530614       -2.21056213324066
C           95.35726333037917        1.94081894882550       -1.57833124074038
N           93.31329260024199        1.07018396554054       -0.97461271917370
C           94.64511290517594        0.93775711256231       -0.81140981766822
C           95.30301065635857       -0.03036831414549       -0.02597098004580
C           94.67764233550139       -1.00489274863849        0.77631075285393
C           95.32867452569180       -2.00131946594459        1.54833645166625
C           94.36633274135886       -2.73064557292551        2.19162306545755
C           93.09918361554253       -2.19278551500864        1.83717386429037
N           93.33777376613136       -1.15936854889603        0.97153202634963
C           91.84009086723447       -2.63499012935242        2.26302330769139
C           91.82962553987048       -3.75322863699181        3.23602045972927
C           91.21263378839987       -4.96484537002454        2.91196970682635
C           91.20615712378374       -6.01208302647274        3.81600662871197
C           91.81259443945490       -5.86658212420420        5.06600972458565
C           91.81933900899843       -6.96673402628040        6.04782940600279
O           92.32949396864664       -6.88850436772514        7.13594525334899
C           92.42664863400032       -4.65290506335546        5.39237364507769
C           92.43793945758364       -3.60954854772876        4.48690279212020
C           90.61328499073333       -2.11191783497430        1.85027898441364
C           89.32947759777163       -2.55573826865882        2.36380895108727
C           88.39036435402448       -1.82620889227037        1.72697843990915
C           89.10217071132976       -0.93240364574540        0.83483990566340
N           90.43362990263492       -1.11717611726585        0.93816775463193
H           87.34942238801050        1.88321031171121       -1.87308082517937
H           89.22717362013270        3.31334929143017       -3.12752986471039
H           91.13249388392769        0.60674767022299       -0.50707941649782
H           92.97762584049968        2.60216509365446       -4.77101473653355
H           93.00117318989429        4.47895574986571       -6.39597365052190
H           91.47855421433810        7.85216542381939       -5.74132622315267
H           90.87778159350651        6.92883574793978       -3.59361394420542
H           90.86294070858811        5.06727007813201       -1.97308671731972
H           94.55993468611479        3.52441548217180       -2.85778230084444
H           96.42933891866163        2.05200607293583       -1.60498882032966
H           96.39672126933472       -2.13924858794639        1.59554187493543
H           94.51928551550562       -3.57302924015944        2.84611582363687
H           92.61467853688292       -0.59581995146866        0.53702065308346
H           90.75255642759784       -5.08492090797802        1.93767526725801
H           90.73050144993809       -6.95140168446167        3.55340717115505
H           91.30951438527772       -7.89073431196657        5.70091871518189
H           92.89054821013390       -4.54699514843341        6.36716195695958
H           92.90297193621002       -2.66573167006573        4.74852445023994
H           89.18800505858940       -3.31134259136096        3.11935698131058
H           87.31859553733928       -1.86343918203045        1.83825424573216
C          104.47599034332532       -0.05138595298287       -0.01258867090895
C          105.11107103968638        0.87598727186760       -0.86129198009340
C          104.47044894312745        1.78797329356146       -1.73938431579005
C          105.44096403455116        2.52142798556984       -2.36516461561819
C          106.70321131342043        2.08358663102029       -1.87895556070542
N          106.45304989224280        1.08077184716186       -0.98106066022816
C          107.96681713302075        2.55939187189328       -2.24998221250724
C          107.99046926642534        3.68064280102304       -3.21936385793715
C          108.60910682881219        3.52549424722366       -4.46374125155813
C          108.62656247913178        4.56875145672041       -5.36910246537073
C          108.03149130669280        5.79360865543785       -5.04924962663055
C          108.06529310370117        6.89226899424283       -6.03219561903940
O          108.57774257327729        6.80227670258451       -7.11822613839537
C          107.41648278501344        5.95117308576305       -3.80501169707005
C          107.39342856718304        4.90372773955053       -2.90130975021611
C          109.18891421351441        2.06718396168645       -1.78660679205635
C          110.47769508128781        2.63175922502859       -2.14688532588531
C          111.40993703750588        1.88976791836952       -1.51468230809787
N          109.35830749415297        1.01979671723873       -0.93482284050505
C          110.68932485991100        0.88107795799050       -0.76312014450632
C          111.33685707045036       -0.10100251694479        0.01156175844740
C          110.70189498771605       -1.08193103059054        0.79685875148673
C          111.34208055608546       -2.09110380002837        1.56176808391747
C          110.37177279853078       -2.81584077128721        2.19779949813885
C          109.11017045584479       -2.26295635228326        1.84564048091046
N          109.35982620023113       -1.22631651276264        0.98760702036020
C          107.84679576851843       -2.69527287209959        2.26907228693384
C          107.82613705647167       -3.81373094567076        3.24150203074212
C          107.19610917557735       -5.01908318323012        2.91920045459409
C          107.17869284289243       -6.06508319620298        3.82456021017675
C          107.78734053460900       -5.92464451342862        5.07404384381129
C          107.78101038687683       -7.02252847355230        6.05840783318223
O          108.29160154399599       -6.94763467792563        7.14670389134334
C          108.41562959218081       -4.71763632935271        5.39816957350148
C          108.43755948018374       -3.67554439855235        4.49153977894748
C          106.62490780855653       -2.16128343981040        1.85561287714913
C          105.33643124011708       -2.59695210070820        2.36472517115213
C          104.40423693739417       -1.86080367602079        1.72540575669029
C          105.12494298809513       -0.97021404500313        0.83712638669202
N          106.45477354138961       -1.16378546526529        0.94478778655620
H          103.40342407347747        1.86291792730508       -1.87307922648891
H          105.29708225049498        3.29097841380146       -3.10579366115087
H          107.16924889341892        0.56292607807897       -0.48291980146276
H          109.06056181233262        2.57350804926177       -4.71898983227454
H          109.09878051991410        4.45436612687097       -6.33890424328645
H          107.57243056034739        7.82668754432194       -5.68867621174898
H          106.95657792855296        6.89952499853909       -3.54672494452573
H          106.92677154420022        5.03373686395078       -1.93128428260341
H          110.62653300780532        3.48771111297645       -2.78477799595925
H          112.48249595646739        1.99793256756906       -1.53226229807011
H          112.40868601060860       -2.23946214002590        1.60991138814535
H          110.51538006046252       -3.66467575273580        2.84604302053113
H          108.64413876543091       -0.65095848537664        0.55634834027330
H          106.73421408069150       -5.13537717747344        1.94530739967167
H          106.69255859286399       -6.99939512080846        3.56331867286260
H          107.26122144658244       -7.94156695713043        5.71318416656793
H          108.88169909577523       -4.61583909927220        6.37235169027256
H          108.91322331575407       -2.73662050961591        4.75167036263880
H          105.18730019034410       -3.35229643989256        3.11905132878532
H          103.33187394661874       -1.89132847635383        1.83301326845674
