120
 energy: -199.577889279541 gnorm: 0.000859157217 xtb: 6.5.1 (b24c23e)
Zn          11.47053269454700       -0.03141538038678       -0.00548874867232
C            8.05945896433446       -0.06004135582215       -0.02253828155640
C            8.68912607196556       -1.29742034678835       -0.08556913026398
C            8.01545503455837       -2.56524693845490       -0.12107384187367
C            8.97466893055668       -3.52362443473898       -0.16340870299679
C           10.24717363255309       -2.85187945063762       -0.16323034426290
N           10.03853073932699       -1.50476860859512       -0.10849608368828
C           11.49808057486925       -3.48051574791897       -0.18658349065767
C           12.73703010449766       -2.83284860862117       -0.14534736504035
C           14.01605250667139       -3.48333760104157       -0.21869616975851
C           14.96290407308102       -2.51225672589746       -0.16279298295275
N           12.93166136104271       -1.47971766487981       -0.05860352690125
C           14.27324422618799       -1.25961466668095       -0.06251740978747
C           14.90496776818780       -0.00105158057201        0.00755504787652
C           14.25126594683974        1.24605401043949        0.07675140000597
C           14.91897150754895        2.51397673987263        0.11757173423428
C           13.95520078680693        3.46879491996551        0.16409072558786
C           12.68752287926772        2.79206313547252        0.16014352600769
C           11.43727782924008        3.41862656154398        0.18200758261959
C           11.42206765801234        4.90161353246949        0.26276852579681
C           10.88065586002631        5.66053998974899       -0.77559531193768
C           10.86803479839961        7.04527275959565       -0.69977680584325
C           11.38970662430229        7.68825151268911        0.41458756299886
C           11.92829770264233        6.94019017690791        1.45289071089500
C           11.94782515219985        5.55554258500884        1.37785770098131
C           10.19770355284193        2.76906217094137        0.13362503115977
C            8.91341035978558        3.41495192512970        0.19979817210891
C            7.97126222057831        2.44083311823563        0.13917802964008
C            8.66717531531520        1.18807709695027        0.04402349478054
N           10.01276644704463        1.42033970141296        0.04630531564147
N           12.90598192912346        1.44111293190621        0.10001810509018
C           11.51053113686708       -4.96385533812313       -0.25989277909489
C           10.97723579571514       -5.62276739643123       -1.36832389047474
C           10.99154093166187       -7.00797086272336       -1.43466054041755
C           11.53219600633910       -7.75135302981229       -0.39424736576100
C           12.06365519510402       -7.10325843384736        0.71254175574969
C           12.05602912446940       -5.71808416506123        0.77977211463881
H            6.97383932939625       -0.07010763698943       -0.01392211649543
H            6.94441181772729       -2.69404958762028       -0.10742374123639
H            8.83802584509081       -4.59307898703284       -0.18139887002042
H           14.16809027170188       -4.54640556520852       -0.31416610070483
H           16.03481578593153       -2.62625436515949       -0.19324933557985
H           15.98891524300771        2.64867578811012        0.10484202671223
H           14.08864710312547        4.53844043631617        0.18638418050028
H           10.48302302044511        5.16016042996486       -1.65159765974076
H           10.44934124515238        7.62497740166710       -1.51494422044750
H           11.37671817923863        8.77069250185635        0.47377184235243
H           12.33498124861880        7.43760364218495        2.32646711642454
H           12.35887618027154        4.97240092885920        2.19451957224500
H            8.75768357576189        4.47789161798893        0.29332987728283
H            6.89808312276376        2.54876044662162        0.16315443941658
H           10.56493343814076       -5.04333938983330       -2.18719411491019
H           10.57861400691605       -7.50943779934653       -2.30325878862313
H           11.54002303238379       -8.83422819638116       -0.44616356567148
H           12.48420607924800       -7.67934216776940        1.52894426283464
H           12.46108356098857       -5.21334301806314        1.64976417801210
Zn          30.08187498080475        0.02826142157806       -0.00397960051102
C           33.49281486873137        0.05868698055648       -0.02087536105035
C           32.86312659466012        1.29762383942945       -0.02845212067913
C           33.53653643531458        2.56589294028802       -0.00698276218585
C           32.57710621812339        3.52499374495294       -0.00682655478866
C           31.30475589725731        2.85362309071226       -0.03753032147728
N           31.51369436025484        1.50547361369402       -0.04256693622281
C           30.05359187007170        3.48223156399521       -0.03499229011598
C           28.81491483771173        2.83271936197622       -0.02358164209026
C           27.53569184799213        3.48521521632337       -0.07105285822085
C           26.58920329904542        2.51227385331868       -0.05778840424021
N           28.62073344828343        1.47701772133124        0.00500862416557
C           27.27925233290390        1.25681977028534       -0.00996589056372
C           26.64755889353992       -0.00369092522201        0.00625069210748
C           27.30118313219296       -1.25258669921037        0.02303710484073
C           26.63376975525915       -2.52126755305235        0.01082601494423
C           27.59779662131560       -3.47694581264905        0.01651665188304
C           28.86532663497329       -2.80033870732766        0.04024753738831
C           30.11583925113683       -3.42672207720533        0.03392267781195
C           30.13208607764294       -4.91181178741472        0.04993817438349
C           30.67358002975693       -5.62415246565943       -1.02091424332740
C           30.68781390995019       -7.01086816638267       -1.00565726311283
C           30.16764467168404       -7.70242927820471        0.07990701130313
C           29.62890291841424       -7.00095686329701        1.15017838747267
C           29.60779324654255       -5.61436203584378        1.13572380089863
C           31.35511659211847       -2.77505317280655        0.01267951923469
C           32.63964152888815       -3.42278926074530        0.04940550675446
C           33.58148068085020       -2.44668126489334        0.03042081431769
C           32.88517034822355       -1.19118435820744       -0.00916386590042
N           31.53963242665932       -1.42372147369434       -0.01588212046587
N           28.64651260415566       -1.44816135481657        0.03753421087832
C           30.04052874514409        4.96727867223070       -0.04399410229708
C           30.57835556211076        5.67395975195368       -1.12039303353078
C           30.56343156354036        7.06072712346286       -1.12676213716492
C           30.01762216702681        7.75801567203292       -0.05763192991797
C           29.48137358006354        7.06227507814233        1.01758664658419
C           29.48983270937216        5.67549593874221        1.02487408162648
H           34.57843563428510        0.06827922404166       -0.01247581790373
H           34.60754291059745        2.69424545131486        0.01295175942707
H           32.71353268857227        4.59419833510597        0.02341562993499
H           27.38327648803331        4.55128751963917       -0.12158020610959
H           25.51729200303422        2.62703702731534       -0.08493262495813
H           25.56384550039221       -2.65551910051093       -0.00688871046406
H           27.46457785809643       -4.54660704034856       -0.00596833177896
H           31.07008588359844       -5.08562497134403       -1.87453276397483
H           31.10655905288102       -7.55396970113358       -1.84564745754170
H           30.18195442402113       -8.78641324228385        0.09177549088288
H           29.22343300013468       -7.53645323668121        2.00150526327125
H           29.19668768483339       -5.06791224909615        1.97735809279853
H           32.79575561776190       -4.48873826697265        0.09642990440010
H           34.65470629828253       -2.55518321832980        0.04859076195883
H           30.99477589805941        5.13083179207276       -1.96178515508502
H           30.98008322870532        7.59959343089086       -1.97084415408355
H           30.00872127487003        8.84211183719047       -0.06264764114501
H           29.05511525627349        7.60230099563881        1.85610268754635
H           29.07987151103862        5.13319830608122        1.87023845023927
C           16.30955590430207        0.00952266687210       -0.00202060871874
C           17.53439743482806        0.00987489172603       -0.00760856954788
C           18.87667990473319        0.00859037539888       -0.01350515004924
C           20.10752681952416        0.00292532730848       -0.01621580275163
C           21.44506427728238       -0.00333465642087       -0.01743127800746
C           22.67589428732770       -0.00949683716292       -0.01515757289031
C           24.01820176113467       -0.01257723613202       -0.01044930665647
C           25.24303422730668       -0.01317153372972       -0.00444065375841
