338
 energy: -667.339605978867 gnorm: 0.000702451190 xtb: 6.5.1 (b24c23e)
C           62.40344100608022        0.00802223296848        0.10122670658269
C           63.00064083954113       -1.20708410299559       -0.20694933930601
C           62.33804213098423       -2.44084231448121       -0.46257290096841
C           63.28990165795987       -3.38104327332688       -0.73774349856670
C           64.56532851378674       -2.74955716355417       -0.66756834997407
N           64.34022147722108       -1.44432510864126       -0.33555668092083
C           65.82203968759940       -3.33161033841463       -0.86614737142337
C           65.83757866560686       -4.76485004272079       -1.24624066795206
C           65.22592896482134       -5.18543752201621       -2.43012180817795
C           65.24069499295929       -6.52188359368970       -2.79351193110200
C           65.86745951900434       -7.43151938655761       -1.95727998362384
S           65.89681901782615       -9.12325139748940       -2.41632839982165
O           65.76136429866914       -9.27172626355565       -3.83577599115712
O           64.49592761915817       -9.57777614673719       -1.73107756924759
O           66.96802711048279       -9.80812024768785       -1.75573717144386
C           66.48266757445316       -7.04543967973878       -0.77753694009021
C           66.46574375882176       -5.70570687489006       -0.42622730940698
C           67.04577241290373       -2.66873553218807       -0.73661878852479
C           68.33486339122722       -3.28416757577157       -1.00048177280940
C           69.26533860628034       -2.33640324940645       -0.76620955248106
N           67.21340803637392       -1.36902077577387       -0.37326750959230
C           68.54359839255753       -1.14120847414214       -0.37281161966244
C           69.19101365592084        0.06560669860667       -0.04798600251402
C           68.56965352114246        1.28098162557577        0.28938747464777
C           69.22779760988593        2.49169174412177        0.63483044275936
C           68.27128261871660        3.43444150482603        0.88907645416362
C           66.99749169310354        2.82931154518494        0.69828407567823
N           67.22968273842841        1.52724941516731        0.34455480930869
C           65.74073731453245        3.42051669606035        0.86709398882890
C           65.72483119405582        4.85713994335142        1.23137208255400
C           66.29275082499659        5.80697090282630        0.37795124903134
C           66.28060525190416        7.15082588710760        0.71278401443893
C           65.70005343051157        7.53224294388761        1.91156552959249
S           65.67944017942744        9.23174751164451        2.34036248710052
O           65.77443931308093       10.05528954547164        1.17115222727651
O           67.10497646839379        9.29374309630386        3.11780535121473
O           64.63940298205735        9.50477304577613        3.28776501338478
C           65.12649534522302        6.61502748456111        2.77717579666698
C           65.14042033066730        5.27422283736672        2.43022650414462
C           64.51620462702240        2.76013679111548        0.71942127301685
C           63.21695040428079        3.40298565291680        0.84819226829043
C           62.29419494336932        2.44366448673776        0.63685843399741
C           63.02796996170925        1.21928680675931        0.36679039545315
N           64.36308149617173        1.44986385448698        0.41651578170273
H           61.31861087664608        0.00211872130641        0.13161555928140
H           61.26910236606938       -2.57854418825027       -0.43123810549402
H           63.12969611378468       -4.42337736682280       -0.96082118617699
H           65.07115921438070       -0.75377626161720       -0.20116541703086
H           64.75363429203242       -4.45597178447840       -3.07778868106432
H           64.78063121554987       -6.85647907175872       -3.71481256662640
H           64.28559113068776      -10.48759564925763       -1.97441931678691
H           66.96772579264294       -7.78253054990781       -0.15003716662782
H           66.93134023897417       -5.38437140069181        0.49809058094309
H           68.48535163341718       -4.29836096913093       -1.33302092868203
H           70.33741660948660       -2.40946214921711       -0.85424303796464
H           70.29768145394632        2.61381522562023        0.68539670736729
H           68.43082598161843        4.45585417632659        1.19368991301566
H           66.49943945379253        0.84693551318535        0.16131429276558
H           66.72924047770546        5.48970854937100       -0.56197924589129
H           66.70785730533655        7.89581420304800        0.05335505976547
H           67.28264574100996       10.19427282740948        3.41550486839970
H           64.67638677454397        6.94879249089936        3.70364914835146
H           64.70862086117472        4.53941628862876        3.09957534793587
H           63.05768173303763        4.44851697225880        1.05713833840450
H           61.21887070406756        2.52695254135906        0.64615294944889
C          122.99054858642255        0.04687901668131        0.09017362233452
C          122.39285288498772        1.24272378051640        0.46552954155091
C          123.05512343276759        2.43052083246633        0.88625253587818
C          122.10255148345131        3.37437382458493        1.14632889274404
C          120.82712463327086        2.79648068611605        0.88265636154733
N          121.05283455149275        1.50928668560615        0.48673230613867
C          119.56963696861789        3.39577120374458        1.01380602041534
C          119.55029286982931        4.81654695549217        1.43725958670101
C          120.16701259830016        5.79623409236333        0.65475396540314
C          120.14993803157950        7.12432722732933        1.04778979362339
C          119.51566326922560        7.45919822046196        2.23318145544182
S          119.48585263898188        9.13913420675795        2.73361517761815
O          119.62702211215426       10.01381977653381        1.60654913622998
O          120.88421481557297        9.16425259444392        3.56025550669261
O          118.41113666805528        9.37336061329276        3.65169670508514
C          118.89390720537065        6.51122353464461        3.02950594630263
C          118.91313358831431        5.18690958643672        2.62448396439623
C          118.34711398643945        2.75962579832142        0.78038843149172
C          117.05807165173512        3.42460256901885        0.85878396880223
C          116.12815473595160        2.48832185758933        0.58023588971643
N          118.18026438606513        1.45441318524235        0.43689300360103
C          116.85021014470871        1.25686518838385        0.32266960195553
C          116.20275451394109        0.04380475657610        0.02093056534551
C          116.82468960345440       -1.17866369492013       -0.28872387373081
C          116.16813060674770       -2.40401853950552       -0.58143770431728
C          117.12504838644331       -3.33925554161054       -0.86112678030036
C          118.39716794630662       -2.71041794287195       -0.75442943625592
N          118.16414830095951       -1.41001179624137       -0.39540162007256
C          119.65412112311466       -3.29402940044108       -0.94697688470723
C          119.67139860270778       -4.71205947378826       -1.37767315513263
C          119.07203201347087       -5.08861796987476       -2.58274135054454
C          119.09046071570370       -6.41057075203932       -2.99537164194693
C          119.70852637300558       -7.35087829135909       -2.18701514285036
S          119.74160354148623       -9.02466738174902       -2.70679875777341
O          119.60768235564397       -9.11996215997859       -4.13065817923980
O          118.34322857043188       -9.50632450900112       -2.03424705608080
O          120.81249147528814       -9.73424478442233       -2.07140212423690
C          120.31193707127794       -7.00890022715569       -0.98765047130068
C          120.29155626602558       -5.68319022718370       -0.58704466854534
C          120.87839480074732       -2.64123251903799       -0.76621000577965
C          122.17705848929241       -3.24800862962804       -1.01774641506422
C          123.09959246631806       -2.31140101651970       -0.72083488193306
C          122.36600672280100       -1.12941870543703       -0.30231540406536
N          121.03120353198646       -1.36170258082072       -0.35200696323452
H          124.07569967331091        0.04090099052264        0.10520380847773
H          124.12433157190992        2.53389842914595        0.97941943120882
H          122.26259829519087        4.38050428683608        1.49841795214131
H          120.32193125999835        0.84811041221442        0.24626183738244
H          120.64522481941027        5.51605033487560       -0.27660921220819
H          120.61433344992885        7.89292504612270        0.44279586067851
H          121.10725077142260       10.06946621565016        3.80929020970435
H          118.40257154960864        6.80877581757069        3.94731595267987
H          118.44262789834845        4.42798671139145        3.23855299873560
H          116.90764007510644        4.46846799697487        1.08136795125660
H          115.05627767341737        2.59633001049580        0.53778503092029
H          115.09907298389827       -2.54256235579389       -0.57280555986814
H          116.96738752221880       -4.37624093638874       -1.10887147642549
H          118.89356483888692       -0.72374058654303       -0.23223930591171
H          118.60683365024894       -4.33539356622092       -3.20797663069309
H          118.63989157906006       -6.71064814552495       -3.93311336802446
H          118.18190950535113      -10.43728583028319       -2.23018525703198
H          120.79065638526903       -7.76895077273135       -0.38308152914188
H          120.74710448775251       -5.39699991984737        0.35367615657090
H          122.33611439837969       -4.24928292135265       -1.38420630042073
H          124.17445085233496       -2.37978241115537       -0.77880359256116
C           71.82213584366949        0.08066208156422       -0.05246819286738
C           70.60122005904776        0.07191521480286       -0.05703690323667
C           73.17449485517005        0.08721871602646       -0.04379408921819
C           74.39539034408992        0.09374205200477       -0.02670130379964
C           85.29063050992700        0.09965279517614        0.05674063321586
C           84.06808381253299        0.10806196777265        0.05282394953534
C           86.63920922901193        0.09436978107568        0.05563271232136
C           87.86184861761595        0.09268196869980        0.05657558636626
C           98.75583472100843        0.08488656398204        0.07409987663429
C           97.53323823193234        0.09227355696810        0.07145467660215
C          100.10438024392958        0.08697711889571        0.07752170638975
C          101.32698942327981        0.08562690258415        0.07850994741335
C          112.21994463398995        0.04998705453494        0.05284975747348
C          110.99890952174869        0.06072085683743        0.06457394386834
C          113.57195960627675        0.04297790646707        0.03906882886959
C          114.79292859013962        0.04166090489863        0.02534763261642
C           75.80459234705228        0.10428582992692       -0.00989266053563
C           76.43580294655546        0.80711154110282       -1.05195760401799
C           75.79260005270760        1.47881132772503       -2.12437086624555
C           76.76084653211889        2.03824936659266       -2.91177440542945
C           78.02473855575577        1.73076405929335       -2.33704755670331
N           77.77793611004718        0.97890886925252       -1.22056507013102
C           79.28760055715414        2.09433809081449       -2.82031450452994
C           79.30763775451297        2.93767591215842       -4.04085895926610
C           79.90714721708201        2.46678794753195       -5.21167217184505
C           79.92902782101554        3.24927914853391       -6.35437209859294
C           79.34806296523263        4.50623084250386       -6.31093317825291
S           79.38469449142796        5.50778216454756       -7.74943191735201
O           79.26811723718994        6.89548362627395       -7.40980109092185
O           77.97635467287493        5.03114970824335       -8.40331294080046
O           80.44755607571977        5.10317661400359       -8.62108717938795
C           78.75080564504084        5.00284899098929       -5.16376514575862
C           78.73049317920814        4.20996820000870       -4.02815446898710
C           80.51114354655708        1.73184684221535       -2.25468043477298
C           81.79962784599037        2.17546818672175       -2.75702709561830
C           82.73289670247736        1.62025856506856       -1.95693293177027
N           80.68258747224016        0.94185686634486       -1.15936821145014
C           82.01302198909910        0.84880513753549       -0.96254071047635
C           82.66330574784887        0.11582411786849        0.05062682380698
C           82.03084133317219       -0.61457085546153        1.07489524228445
C           82.67425346673814       -1.36714030337456        2.09147479145532
C           81.70555079526291       -1.90785495613572        2.89156455757314
C           80.44113378949628       -1.49379928119160        2.38951387741879
N           80.68873259045337       -0.72164914627166        1.28663322797412
C           79.17812288520632       -1.82576756122168        2.89395947321745
C           79.15842265674698       -2.65349588026367        4.12509249811244
C           78.57699053168507       -3.92380469814484        4.11203903317337
C           78.56043387040059       -4.70146767500503        5.25822369504191
C           79.12604025004765       -4.19209231311409        6.41578653850811
S           79.11991724844631       -5.17390379485385        7.86838676542350
O           78.99128236308003       -6.56306154368065        7.54172315913012
O           77.71083755703009       -4.66211225387365        8.49255813203142
O           80.17077048164778       -4.77444996166518        8.75789096270062
C           79.71104405077357       -2.93701950785516        6.45971289814857
C           79.72627528677535       -2.16988787534320        5.30657737284251
C           77.95402383386168       -1.44503728332648        2.33997664888755
C           76.66406694938262       -1.77194205957865        2.92265463692537
C           75.73101219483947       -1.23787654425605        2.10840205465518
C           76.45173577233429       -0.57602926546955        1.03826907206399
N           77.78399732225542       -0.70992169880042        1.20841388779051
H           74.72526541851366        1.51848957989216       -2.27010820262063
H           76.61477875363907        2.60512855027907       -3.81664200089677
H           78.49651426195599        0.59855813898695       -0.61372635583184
H           80.34670764888311        1.47636917728352       -5.22707953682764
H           80.39198975572099        2.89481587377719       -7.26670652743716
H           77.78587493073243        5.54602920956181       -9.19696417717645
H           78.31733128709168        5.99505972046716       -5.16139216679129
H           78.28035311615201        4.58524592614892       -3.11647446028889
H           81.94816808361941        2.83315762321794       -3.59794671390959
H           83.80570235608762        1.71503945273362       -2.00762434597041
H           83.74201981975625       -1.47930744619118        2.18797371628082
H           81.85189541195257       -2.54598865339855        3.74759158070990
H           79.97090206159973       -0.29772211043623        0.70850175726422
H           78.15125349961303       -4.30829991485066        3.19264669329324
H           78.12240240424299       -5.69166706157859        5.25647639287236
H           77.56405987989750       -5.06122692826939        9.35879548163221
H           80.14867139977166       -2.57219774922818        7.38045434769397
H           80.16871698843856       -1.18064340704377        5.32286436328791
H           76.51461501033347       -2.32292057380339        3.83691356855789
H           74.65753883205227       -1.26612358594832        2.20462535966721
C           89.26644063262972        0.09296392870747        0.05743438578849
C           89.89325485256731        0.77056319716436       -1.00633738817316
C           89.24447352493880        1.42183788549476       -2.08714630253120
C           90.20904131438614        1.96395314095798       -2.89176541317986
C           91.47551916887591        1.66636680666991       -2.31853229454574
N           91.23397399697033        0.93556691536324       -1.18642705447954
C           92.73606627501643        2.02313975910310       -2.81300043794789
C           92.75040508452453        2.84558908287527       -4.04780529558096
C           93.34822564133027        2.35596420990054       -5.21172297488785
C           93.36581142268169        3.11876034038548       -6.36781044907608
C           92.78240929927676        4.37499186850035       -6.34459754128042
S           92.81497558839665        5.35335196269274       -7.79965447382842
O           92.72866160278140        6.74898646019757       -7.48274874661359
O           91.38616834384001        4.90121449475668       -8.42419884731499
O           93.85888319411458        4.91225012953288       -8.67559189531018
C           92.18663272815621        4.88987606549839       -5.20466390232527
C           92.17043170349075        4.11666403170748       -4.05553466625206
C           93.96263711161355        1.67383114203377       -2.24557145270432
C           95.24765475232670        2.11648647243363       -2.75735129879379
C           96.18568917953901        1.57715825790483       -1.95188491386035
N           94.14070614181560        0.89951579585397       -1.14005025628577
C           95.47222256372832        0.81492672389478       -0.94605788224778
C           96.12865298207571        0.09343511239227        0.07133256400802
C           95.50185839366897       -0.63422978302428        1.10151653201903
C           96.15066939383483       -1.38573666705719        2.11500596778194
C           95.18602815266611       -1.92562334746078        2.92105875980104
C           93.91952545391712       -1.51022903873771        2.42667633879317
N           94.16093159846818       -0.74007790516248        1.32118543101357
C           92.65872547429859       -1.83503115802462        2.94282082572070
C           92.64616559441630       -2.66411298909798        4.17324872634357
C           92.05926799456915       -3.93190208467033        4.16158867375678
C           92.05151482711227       -4.71364672642877        5.30504727359767
C           92.63081006295256       -4.21047185409457        6.45856266280889
S           92.63665353426622       -5.19879321503300        7.90695043093464
O           92.52457189627134       -6.58895458224660        7.57688907390403
O           91.21903271705564       -4.71051808015990        8.52943267766800
O           93.68423570502969       -4.78944281979133        8.79520861879661
C           93.22026029896796       -2.95753893012513        6.50127430405035
C           93.22699221630165       -2.18637279582692        5.35065227063890
C           91.43230124460429       -1.44697449794206        2.40172134962601
C           90.14701576028524       -1.75744313240022        3.00241823258297
C           89.20892984765129       -1.21925322804608        2.19630068296851
C           89.92265108728026       -0.57450242851891        1.11134101651839
N           91.25409090667262       -0.71813928113559        1.26553550208374
H           88.17634246761881        1.46087078546256       -2.22711053701011
H           90.05816721762974        2.51331722152383       -3.80658108728254
H           91.95514760232069        0.56653708560544       -0.57567855333249
H           93.79011748077099        1.36645663657724       -5.21099986204125
H           93.82739690673404        2.74959848805439       -7.27499521431946
H           91.12661154500549        5.50135249161070       -9.13399417998887
H           91.75134755045447        5.88121612667581       -5.21819072210686
H           91.72179435264059        4.50669166728424       -3.14932596341604
H           95.39079702068675        2.76340087911485       -3.60750843600727
H           97.25791263042986        1.67617814732812       -2.00660903869714
H           97.21885365999263       -1.49875911964111        2.20548977231560
H           95.33717000188879       -2.56326214085367        3.77660507520941
H           93.43993718882759       -0.31621935560232        0.74692341776030
H           91.62256160660422       -4.31116389635628        3.24514044603607
H           91.61002358069358       -5.70231936157462        5.30417169041549
H           91.02865197230759       -5.18827268298534        9.34609850963625
H           93.66809582272266       -2.59756466031095        7.41899161076406
H           93.67313232052629       -1.19879635197083        5.36590653699632
H           90.00407855680767       -2.30027293279060        3.92259013446093
H           88.13649804291209       -1.23623433432000        2.30627802328326
C          102.73168266854522        0.09073722895962        0.08131432186573
C          103.35730902783502        0.78182227111278       -0.97412749559547
C          102.70749753967758        1.44384159112367       -2.04813575653234
C          103.67074336101200        2.00226356505119       -2.84268628284272
C          104.93784249827856        1.70446676968958       -2.27004625060838
N          104.69746561108997        0.95640555990970       -1.14888728312209
C          106.19723232418342        2.07785123440640       -2.75355107491623
C          106.21240330127497        2.91952522579199       -3.97505732583642
C          106.82466820308174        2.45321911718173       -5.14116954374399
C          106.84221959859936        3.23224309738334       -6.28631076839576
C          106.24424394697296        4.48129464070627       -6.25003910428514
S          106.27368514839655        5.47857320202128       -7.69227164839944
O          106.17178767208854        6.86914771950086       -7.35855898492390
O          104.85211805462853        5.01929159466070       -8.32845138693433
O          107.32541869863100        5.05912845561535       -8.56946001847998
C          105.63470801483309        4.97363034012006       -5.10742415695626
C          105.61873397098205        4.18428465509949       -3.96928668032729
C          107.42412435713392        1.72412084611576       -2.18748948713910
C          108.70850569329625        2.18737576694880       -2.68349072961231
C          109.64721052614220        1.62812838319058       -1.89298130242351
N          107.60211823026115        0.92121141702355       -1.10440169265322
C          108.93518169042913        0.83336827251066       -0.91130288845529
C          109.59005775165095        0.07306872264445        0.07537397453461
C          108.96568870215937       -0.68229079514681        1.08439161341396
C          109.61518102688132       -1.46228334872849        2.07655703950022
C          108.65227242567464       -2.00566863792649        2.88168151435742
C          107.38566844012072       -1.56609979276734        2.40766992627124
N          107.62509884174264       -0.77926892095194        1.31413410508213
C          106.12641228275187       -1.88298735187748        2.93225480721980
C          106.11614977070438       -2.72207733581670        4.15586402124493
C          105.51327168638261       -3.98230556380727        4.14176357432507
C          105.50612159523354       -4.77108140196483        5.28039112685099
C          106.10232007130250       -4.28274861987832        6.43169772517723
S          106.10819850580616       -5.28031806096971        7.87350507571947
O          105.96585319161672       -6.66548092164148        7.53430555567597
O          104.70930165831106       -4.76852748626266        8.51861433537653
O          107.17421578819358       -4.89761377905913        8.75187641409708
C          106.70843357453901       -3.03782519385238        6.47657329048527
C          106.71436159811437       -2.25959932387153        5.33074897803101
C          104.89960476954775       -1.47740109719522        2.40483404493393
C          103.61538194993950       -1.78466075363819        3.00963771794775
C          102.67655629223951       -1.23620245600895        2.21137704428311
C          103.38893719008574       -0.58631227711894        1.12846321124620
N          104.72020355174783       -0.73744593914134        1.27613639233828
H          101.63947995213564        1.47880862263263       -2.19009633223136
H          103.51916185495679        2.56292862962516       -3.75050172042538
H          105.41897669016254        0.58210360395707       -0.54179150128086
H          107.27755573548231        1.46873427143383       -5.15100718393068
H          107.31461908936311        2.88103580021321       -7.19505482103359
H          104.59146741000197        5.62327381015583       -9.03457308478330
H          105.18847203128553        5.96018616515320       -5.11039102337411
H          105.15946318183416        4.55676238173194       -3.06102715403452
H          108.85021381080351        2.86020082605622       -3.51351340194073
H          110.71904435164407        1.73317799597365       -1.94251764225129
H          110.68289988184385       -1.58833105931790        2.15466065333477
H          108.80383885870482       -2.66070370247303        3.72394424663157
H          106.90315994676686       -0.33494107654134        0.75679534663708
H          105.06322452466200       -4.35028964461303        3.22718766279549
H          105.05194478064546       -5.75397927564647        5.27753899747698
H          104.53556755786688       -5.22628708247793        9.35023219202773
H          107.16931000692796       -2.68928573619561        7.39226427863775
H          107.17339157308406       -1.27796949278668        5.34797938539970
H          103.47362639862021       -2.33344542116682        3.92645432704998
H          101.60454442361059       -1.24843809071237        2.32606096249141
