190
 energy: -313.794893694657 gnorm: 0.000474830442 xtb: 6.5.1 (b24c23e)
C           28.22335300530150       -0.08020153287898        0.08242099550004
C           28.83416326938456       -0.95321153605936        0.97377042514623
C           28.18439603126611       -1.87053236648611        1.84590644504415
C           29.14724808959042       -2.52567078944629        2.56161551614840
C           30.41596852474715       -2.02005055654697        2.15931484473195
N           30.17657914985049       -1.08522414824451        1.19185649745866
C           31.67882453367904       -2.39262578290032        2.63625602504171
C           31.71355709069663       -3.40193341486945        3.72028928122538
C           32.39570725279483       -4.60893602335313        3.54540465307263
C           32.42566011446930       -5.55960776736113        4.54985003911170
C           31.78187308271023       -5.31570358768686        5.76576686814651
N           31.77569075220689       -6.28068212518623        6.75813800267707
C           31.09425336120114       -4.11306644797052        5.94781644727495
C           31.06160287969570       -3.17155718512942        4.93437480066160
C           32.89090516424551       -1.88242136716919        2.16237894885929
C           34.18628550815571       -2.21848338964901        2.72444204576959
C           35.10474595794525       -1.54669906885753        1.99878632180023
N           33.04322854607985       -1.00357948358624        1.13340379525961
C           34.36891376887910       -0.79459540006192        1.00172475340856
C           35.00471839674849        0.00851329103695        0.03282569622262
C           34.36749087214844        0.80553349186531       -0.93761113518834
C           35.01038246247538        1.58294919917478       -1.93635670074503
C           34.04316232922714        2.23137388872082       -2.65413768700468
C           32.77891972232312        1.87726258138554       -2.10775169639099
N           33.02667673447998        1.00310533692561       -1.08189489932877
C           31.51721840505545        2.31365620101612       -2.52944664559082
C           31.48271730510005        3.30931900130219       -3.62483570162418
C           30.79715669504239        3.03959261445493       -4.81240249268962
C           30.76211692499793        3.96657004823034       -5.83863565250641
C           31.40458865641709        5.19882718135031       -5.69311419607495
N           31.40379796692508        6.11345289506518       -6.73189215257955
C           32.09740334910224        5.47473828442174       -4.51149849005528
C           32.13467362838039        4.53843595994797       -3.49366311291137
C           30.30297894700507        1.87486866631291       -1.98805755102266
C           28.99857898016308        2.38076066755709       -2.38537688755775
C           28.08717804397188        1.70389173462179       -1.65720662072053
C           28.83400275856164        0.79637514545546       -0.80507854874838
N           30.16503974411553        0.93591572248198       -1.02204673283963
H           27.13791980479263       -0.09099452270257        0.08707966658008
H           27.11626341643463       -2.00792743243374        1.90319168592281
H           28.99664778800106       -3.29918616757151        3.29711646466947
H           30.90141513403884       -0.56985648407673        0.70372385809028
H           32.88946610337752       -4.81005693125015        2.60101999932165
H           32.94926396092056       -6.49708603116615        4.39750514779539
H           31.59669992039553       -5.93457988399372        7.68729689642598
H           32.53189756638261       -6.94480927404480        6.71050868894830
H           30.59045519194592       -3.91877959394269        6.88845783427991
H           30.54336734021584       -2.23196282157689        5.09255842330863
H           34.34929018626698       -2.86658844169016        3.57037159266063
H           36.17702008456411       -1.53769844817029        2.11309235020850
H           36.07739156645030        1.62925424968075       -2.08369417396173
H           34.19027584880078        2.88758592907914       -3.49635584648981
H           32.30485344623195        0.56411567357135       -0.51985094529303
H           30.30528617976000        2.08126724826961       -4.93820807301824
H           30.23540620318086        3.74052438032305       -6.75937267523455
H           30.64451074326463        6.01361746308806       -7.38656181840792
H           31.58398658364799        7.06669350152203       -6.46015138265841
H           32.60098724007164        6.42797450295652       -4.39362524902398
H           32.65628095132760        4.77026038244551       -2.57136415006982
H           28.82712460687757        3.15932722102675       -3.11133513917464
H           27.01220661984227        1.79611603170610       -1.66590461222569
C           61.85400152793752        0.02360174747061       -0.12393511585980
C           61.24807912193895        0.67569111447373       -1.19039328831181
C           61.90343257210585        1.29437104352364       -2.29129152772344
C           60.94471346753490        1.82658538400033       -3.10741335206632
C           59.67293902726469        1.56002211487344       -2.52542658533579
N           59.90657317039472        0.85517838179951       -1.37840555506168
C           58.41249165501354        1.92031746029088       -3.01816616126899
C           58.38820179454675        2.72032103558543       -4.26527703962838
C           57.73057061045687        2.24710038160708       -5.40359329494096
C           57.71200262447050        2.98764298155030       -6.57201177922745
C           58.34296548401097        4.23326398180310       -6.62318292174228
N           58.36094004737197        4.95895998172386       -7.80187533028144
C           59.00672394570736        4.71207979754074       -5.49079573408861
C           59.02800571438411        3.96080690020801       -4.32908964441403
C           57.19625951468449        1.58132724245981       -2.41868597431150
C           55.90164560913422        2.01943442653561       -2.90753856018166
C           54.97926292794721        1.49154148667645       -2.07575047115624
N           57.03888158428924        0.82247460056096       -1.29871949527096
C           55.71180909255762        0.74276222763389       -1.07367790635233
C           55.07189591484637        0.04632564342660       -0.02793945761675
C           55.70388522664869       -0.65901905063172        1.01425633141266
C           55.05419474890412       -1.39583141828094        2.03917008409297
C           56.01724840188207       -1.93078927481684        2.84979552969874
C           57.28598428885577       -1.52646867300429        2.35063651597568
N           57.04435056185101       -0.76728868733012        1.23552055902720
C           58.54593865177697       -1.84946642302886        2.86818608281681
C           58.57484029217282       -2.65990908887378        4.10727229148250
C           59.22632565087942       -3.89603563350660        4.13286935121387
C           59.25218562698839       -4.66167144840526        5.28468041957427
C           58.63498411890333       -4.19769094619495        6.44926139610722
N           58.62427780305566       -4.97842636939204        7.59208182372898
C           57.97783935306801       -2.96475142748135        6.43164237406276
C           57.94921835130266       -2.20946885086539        5.27273292471968
C           59.76354562855908       -1.46420236642654        2.29476466336337
C           61.06692884207455       -1.74650116022878        2.87500028370124
C           61.98218244846510       -1.22504334485687        2.03275906352371
C           61.23898625383320       -0.61318854254336        0.94611375519488
N           59.90635102371758       -0.76720017354436        1.14260625280276
H           62.93941164752282        0.01681502615233       -0.13609983391205
H           62.97230299465581        1.31601748280036       -2.43309857301280
H           61.09993090428458        2.34889746995716       -4.03750614633010
H           59.17863115904277        0.51001710814045       -0.76176345412492
H           57.24728534335684        1.27667565650132       -5.37538260589894
H           57.20727685258212        2.60435546679818       -7.45214196753881
H           58.52756483440578        5.94643654384726       -7.69102375410047
H           57.61730254317631        4.74221796234077       -8.44620754142789
H           59.50101741938249        5.67689078208895       -5.52495221692347
H           59.52810492647670        4.34966787633754       -3.44864801679792
H           55.74129896348229        2.65794433005922       -3.76122324528873
H           53.90622314795402        1.59351110288725       -2.10933872057673
H           53.98561026370100       -1.50502807466302        2.13144441710048
H           55.86407386732409       -2.56150247661019        3.71018825471205
H           57.77001645767621       -0.36072770745733        0.65434069479461
H           59.69771864873839       -4.26879011285057        3.23022156695971
H           59.75139462481076       -5.62449368626383        5.28789357361458
H           59.36404289043688       -5.65999651666473        7.64917824365125
H           58.46767053254564       -4.47478830839037        8.45051582710192
H           57.49457431356716       -2.60031031162066        7.33152606049071
H           57.45509407113396       -1.24393285765841        5.27461612496616
H           61.23513382785261       -2.25918872273884        3.80851253162343
H           63.05779185506493       -1.22899682139271        2.11749479272832
C           37.63329540769931        0.03390527622531        0.01034856950652
C           36.41085901490858        0.02236023320670        0.02179293015528
C           38.98274734145226        0.04454170066189        0.00698174447180
C           40.20529745318241        0.05219703561361        0.00343762650763
C           51.09389800228647        0.03829763595555        0.02652539856229
C           49.87133235789446        0.03558331652479        0.04174028364258
C           52.44337031027822        0.04195628251805        0.01370790837064
C           53.66565057958948        0.04703636009987       -0.01022823419579
C           41.61065586534085        0.05480690284477        0.00971136381017
C           42.23019016518653       -0.29501370852134        1.22544256229341
C           41.57372662283615       -0.67420327699829        2.42418226217666
C           42.53158079717606       -0.89638374027407        3.37617070001177
C           43.80130958204014       -0.64981410555687        2.78747962542287
N           43.56865528950176       -0.30277669815515        1.48314985554230
C           45.05526782587806       -0.74950326966780        3.40508195048946
C           45.05449259003622       -1.07590970588463        4.85084813562389
C           45.69998345079091       -2.21997266841513        5.32662029044931
C           45.69778175746728       -2.52676899882837        6.67567387150864
C           45.05825645698197       -1.68182487321501        7.58636973582192
N           45.02113389749671       -2.00510021894152        8.93179675226090
C           44.40556832838212       -0.53853543999295        7.11837838677511
C           44.40456868879735       -0.24431323004135        5.76655283926109
C           46.28454539462995       -0.56178100919923        2.76904643364098
C           47.56524762450758       -0.61186037852090        3.45073595895706
C           48.50908229496362       -0.39996647621933        2.50959597055731
N           46.47072520968170       -0.29758419816339        1.44614122341705
C           47.80316246732498       -0.20603584706999        1.25923455692118
C           48.46590837087117        0.04066660953148        0.04009778238582
C           47.84634063599309        0.29729428123375       -1.19871457835601
C           48.50309742786648        0.49950076851060       -2.43954328646483
C           47.54531561942519        0.72480101749886       -3.39074121488633
C           46.27533417916971        0.67869981442459       -2.75465590803644
N           46.50800154310573        0.40583367673159       -1.43264776791294
C           45.02083193380523        0.86322100757796       -3.35081055630989
C           45.01658471723416        1.19369995520657       -4.79545593003626
C           45.67074151177616        2.33288085334026       -5.27127662433970
C           45.66714795530335        2.64244538344588       -6.61980822324469
C           45.00752716269430        1.81084363199086       -7.52842434977562
N           45.04350328761848        2.08993539456347       -8.88359868669255
C           44.36165865717099        0.66273818571418       -7.06241385532927
C           44.36211398772563        0.36582802402609       -5.71135398278387
C           43.79259685930400        0.75652535155563       -2.69400690860513
C           42.51299671948793        1.03006287473809       -3.32253205090708
C           41.56915123732181        0.80428649177487       -2.38456911078230
C           42.27402768744081        0.40392895383886       -1.18373839586802
N           43.60629930896506        0.39817590313278       -1.39371008850822
H           40.50541258002294       -0.76760911150530        2.53488296505074
H           42.37335873322612       -1.21477672996977        4.39357232246151
H           44.29434805307520       -0.08805090272672        0.80752216401906
H           46.19026598495945       -2.88621453938669        4.62536640038844
H           46.19325158317558       -3.42354976333325        7.03132788837834
H           45.75844117984077       -2.61722251374563        9.24283141717694
H           44.84838912985822       -1.22926911507234        9.55092483902147
H           43.90404265801301        0.11946432377180        7.81964367819314
H           43.91257792014716        0.65582632081662        5.41426803204831
H           47.70308579010702       -0.77177349022334        4.50787075336966
H           49.58044724669524       -0.36192424865072        2.62659388274568
H           49.57146514688253        0.46703405608222       -2.58013514502823
H           47.70414503352374        0.89556404706541       -4.44291518794858
H           45.78195806265667        0.28969428864475       -0.73367137532258
H           46.16813608395456        2.99487034888057       -4.57072115062381
H           46.17262662200975        3.53364366449780       -6.97557201013851
H           44.30359118318604        1.67128190635849       -9.42425888717933
H           45.22136867125095        3.05415602938822       -9.11525202106680
H           43.85978360882647        0.00597785541346       -7.76454024505969
H           43.86711186586527       -0.53236645425272       -5.35881047725420
H           42.37644252747751        1.36560622370665       -4.33786517661163
H           40.49842649519691        0.90047895598233       -2.46962120105998
