122
 energy: -210.535599934738 gnorm: 0.000801825162 xtb: 6.5.1 (b24c23e)
C           13.21500339187652       -0.01476780492104       -0.21052507200815
C           13.82444361123009        1.00031640452837       -0.93920172635913
C           13.18288868618523        1.99556096788093       -1.72668557654483
C           14.15372712965263        2.79256030055791       -2.26891971864541
C           15.41381357091253        2.30547253350369       -1.82916790810151
N           15.16980702789730        1.22859692286844       -1.03186040255622
C           16.68312011505448        2.81996412982907       -2.14885216937496
C           16.71174558504051        3.95115121781809       -2.99442297590670
C           16.73043482876287        4.92475570133701       -3.71860166574468
C           16.76605698521043        6.05800539540573       -4.56272475609028
C           15.59463031501123        6.59527074796253       -5.10925358129709
C           15.68570136871632        7.70558962662178       -5.92953288927529
N           16.83974036713143        8.29654975770191       -6.22871978920046
C           17.95778684674871        7.79257244690160       -5.71212205448205
C           17.97580924961704        6.68593908329977       -4.88219708138646
C           17.90834801991893        2.30054039280031       -1.70041762881062
C           19.19329553604584        2.85798567723704       -2.07383860024256
C           20.12819795633905        2.09930018210768       -1.46370451283448
N           18.07452048719468        1.23273581899089       -0.88199301089997
C           19.40819529125416        1.08544930552973       -0.71762149730120
C           20.05197485310704        0.10692007779703        0.06346618135628
C           19.41565463552388       -0.89660226673195        0.82038503330042
C           20.04997029248361       -1.88135726609130        1.62110128140814
C           19.07379902506274       -2.66444383590942        2.17658651649856
C           17.81868662086834       -2.17828957694673        1.72755274147936
N           18.07160635502894       -1.11017110486713        0.91488441500869
C           16.55044687828733       -2.69570716120863        2.04531379927295
C           16.52034532385930       -3.82018413360284        2.89808417407354
C           16.49702544484102       -4.78997537207717        3.62769222755552
C           16.46566802208607       -5.92180880098059        4.47335281542124
C           17.64621381272272       -6.51199354497776        4.94041355763957
C           17.56129354326809       -7.62036145604350        5.76384225761859
N           16.40474548304138       -8.16075306407041        6.13961383387307
C           15.27803042278784       -7.60551894775471        5.70015314981918
C           15.25337180038113       -6.49653865259389        4.87352567260542
C           15.32528702235018       -2.18740062319237        1.57757196791951
C           14.03479672935788       -2.75653271702467        1.92497027590790
C           13.10743101547291       -2.00814672637739        1.29351642404047
C           13.83458929831872       -0.98439365468559        0.56330727377015
N           15.17248670955239       -1.12704324614652        0.75964719703430
H           12.13110661133417       -0.04240032119121       -0.25773263061758
H           12.11556829180798        2.08081514296931       -1.85413552343120
H           14.01943359195186        3.64334858693651       -2.91757027936230
H           15.88557539940117        0.67508607545840       -0.57304247144476
H           14.63332764936058        6.14533153356790       -4.89182599273090
H           14.79293497298818        8.14198417241763       -6.36857112650464
H           18.88153150184176        8.29971867677382       -5.97566879161945
H           18.90956073471619        6.30864721045461       -4.48296850350457
H           19.33192339423740        3.71181911007544       -2.71768620813685
H           21.20166923989315        2.19538917638229       -1.49666516906933
H           21.11640519057909       -1.97148501867398        1.75077160226467
H           19.20396359070307       -3.50546098860869        2.83847251251881
H           17.35928182534932       -0.56002917120977        0.44636206835756
H           18.60964087605445       -6.10467441466159        4.65833082827795
H           18.46118592944795       -8.09891908301790        6.13948241230675
H           14.35251973306350       -8.07072381306335        6.02696483775542
H           14.31252112270722       -6.07629594916471        4.53926543414024
H           13.89119949069197       -3.61180407766159        2.56608232279709
H           12.03380581668465       -2.11221324024056        1.30100253439661
C           33.49300889900115       -0.20996398206124       -0.04149914812643
C           32.88405994460323       -1.04330687262279        0.88991438625541
C           33.52608418504102       -1.93277364894239        1.79485404736335
C           32.55555240462542       -2.55841562309698        2.52862007286084
C           31.29518695209751       -2.06982972142073        2.09133533244655
N           31.53874878327796       -1.16097693697834        1.10666284133121
C           30.02597508825852       -2.44431698094784        2.56767037078817
C           29.99684899198168       -3.40603547672392        3.60190139809826
C           29.97715122143488       -4.23456524863124        4.48846067714577
C           29.94048304106587       -5.19317573993264        5.52659796503945
C           31.11225598452524       -5.78456330223089        6.01365015053808
C           31.01909671592866       -6.71820669083710        7.03030969267408
N           29.86280865797536       -7.08687217057994        7.57598976231834
C           28.74440125398009       -6.52843074800757        7.11927212642892
C           28.72836047580886       -5.58646637105532        6.10628907017463
C           28.80053342421991       -1.94317509061588        2.09936536240050
C           27.51574101484388       -2.37581990468770        2.61261141359806
C           26.58055983614108       -1.68707989745384        1.92486868010355
N           28.63397693553744       -1.01340013504755        1.12704959824396
C           27.30021441547574       -0.83445060829154        0.99856103535563
C           26.65615517690136        0.04904424399026        0.11158981922092
C           27.29227871812759        0.91215907945245       -0.80229031919213
C           26.65772696188789        1.81743909985328       -1.69169595552369
C           27.63365435107407        2.45537779640252       -2.40951511810466
C           28.88880489681994        1.95415220215157       -1.97747380305566
N           28.63620610115522        1.02880340654686       -1.00526649787402
C           30.15672075981317        2.32495676484477       -2.45911088607381
C           30.18634800571799        3.29610531288216       -3.48307700333830
C           30.21019929616442        4.12901652175596       -4.36570893266436
C           30.24327132229267        5.09454013532639       -5.39713674347273
C           29.06441438133568        5.63632737696893       -5.92333265432628
C           29.15177805085019        6.57650663559989       -6.93437435757629
N           30.30909463990366        6.99824777631417       -7.43783338453766
C           31.43421116437405        6.48881247107274       -6.94242599407745
C           31.45640469701452        5.54383610542391       -5.93237556910120
C           31.38191540000804        1.80251622142988       -2.00728945705128
C           32.67204507463753        2.20751596050736       -2.53784193847519
C           33.59964414530178        1.49832267953209       -1.86298156173583
C           32.87298897984775        0.66321057955945       -0.92244261991223
N           31.53512771859456        0.87499031887584       -1.04139819414804
H           34.57690348874208       -0.25375437613237       -0.07440352016934
H           34.59349930192673       -2.06774259737499        1.86622356339813
H           32.69020153105863       -3.29485433917422        3.30460193347194
H           30.82270752476285       -0.64571015813892        0.60566537143801
H           32.07543433362858       -5.51338520788439        5.59808765239580
H           31.91213105142560       -7.19378686891868        7.42634924255865
H           27.81881614450222       -6.85172148134408        7.58674424645839
H           27.79438485233029       -5.15702479553553        5.76453556714549
H           27.37737627746785       -3.10903849748647        3.39110172767951
H           25.50710798815415       -1.73074085041477        2.01679400760266
H           25.59132848602943        1.95721486279629       -1.76570955705578
H           27.50329274594698        3.20632653861747       -3.17201837428795
H           29.34864240216521        0.50184467405708       -0.51096443745348
H           28.10037871149867        5.32131065179868       -5.54242319430229
H           28.25324715368521        7.01313396466747       -7.36093217594406
H           32.36048317407532        6.85437941453588       -7.37645444029557
H           32.39598387617585        5.15490397460076       -5.55888270132332
H           32.81526665807950        2.93640748785051       -3.31972827199281
H           34.67312489643798        1.51566583249865       -1.96736652115798
C           22.67945039026588        0.10889798409195        0.11199395872995
C           21.45744283429547        0.11552686032275        0.09552980228974
C           24.02876409972542        0.09726974941187        0.12173808116725
C           25.25072638891179        0.08103629698653        0.12415834052088
