250
 energy: -455.007963574346 gnorm: 0.000509081213 xtb: 6.5.1 (b24c23e)
Co          48.14179054758910        0.01266358265681       -0.07759560549449
C           44.77647200607613        0.07972960135038       -0.29797583161919
C           45.46130702995297        1.27352475576482       -0.36752861458543
C           44.82277602707761        2.54665267019812       -0.51096436642786
C           45.77626145000427        3.48419295201868       -0.30261753597103
C           47.00090491163795        2.78226911793919       -0.05042159207835
N           46.80516271419152        1.42790625460664       -0.13435191272395
C           48.17563591790707        3.39023670719985        0.37325720065580
C           48.18876896674688        4.85519712447413        0.59475132974377
C           48.37610655944803        5.37099966694389        1.88003935954577
C           48.38931489585088        6.73708349128794        2.08682552772230
C           48.22111016669798        7.61689201614807        1.01251331746165
C           48.24371594268679        9.07066114736141        1.25871802492814
O           48.40293289246673        9.56232453732620        2.34641011048589
C           48.03691762588294        7.10130444165925       -0.27253233830767
C           48.01882625441264        5.73308289080587       -0.47853111536848
C           49.34380056180959        2.67302806143127        0.57837443848620
C           50.59409895587174        3.27118452635766        0.94071953360085
C           51.54125930798641        2.31388356433621        0.79768844415374
N           49.52095117349729        1.34333746379567        0.26716087658751
C           50.86740731295451        1.13375535141615        0.35658906635969
C           51.53293617255255       -0.03244040227110       -0.03100590712977
C           50.84286376296132       -1.19396827440689       -0.38557129987533
C           51.49137018595011       -2.40678655944298       -0.77267862604014
C           50.52808708420235       -3.35677514331535       -0.84092424286812
C           49.29377900241999       -2.71874496051717       -0.49406700003163
N           49.49287864525896       -1.37550636458160       -0.27414321704965
C           48.08999960745676       -3.38841045245152       -0.32969445915091
C           48.07336488042346       -4.86393180095938       -0.43323364409217
C           47.28695166270696       -5.49646125710664       -1.40036626226833
C           47.27771905371164       -6.87603168866644       -1.50360200607452
C           48.05131573546984       -7.65175474782767       -0.63696350807370
C           48.05758983843349       -9.12382799000360       -0.72485564065572
O           48.70489898503479       -9.83415642346481        0.00073960182640
C           48.83668905929887       -7.01932865253009        0.33250125506863
C           48.85040625013701       -5.64145522169131        0.43108340002707
C           46.89997779173644       -2.71060057571270       -0.09800070489875
C           45.62941608752305       -3.35060220326007        0.08202497472382
C           44.69336209871306       -2.37287520672573        0.06312191619678
C           45.39487660704977       -1.13648738272059       -0.10245642518565
N           46.75005836879823       -1.34806286934814       -0.13957207202289
H           43.69584367905378        0.10137565450048       -0.37491040822928
H           43.77338380819661        2.68377487003527       -0.71761490189328
H           45.66926310781326        4.55671441015190       -0.29929593463841
H           48.49698443672291        4.69047072523197        2.71521507737065
H           48.52895773690725        7.14691919076689        3.08138630905916
H           48.10074668595814        9.68964218759523        0.34739884509721
H           47.91019971964943        7.77726247556803       -1.11193770237002
H           47.88907235736701        5.33525616344572       -1.47865309578841
H           50.72255695327647        4.29928757360216        1.23732504506158
H           52.60440547619733        2.38695511592482        0.96065561031629
H           52.54966973417822       -2.50435465334857       -0.95334000513350
H           50.63170997296861       -4.39647627382663       -1.10517648284109
H           46.69687779726164       -4.89676777819685       -2.08420903990007
H           46.66933969998460       -7.35834790493586       -2.26177811464290
H           47.40766873689665       -9.53545033291067       -1.52624442846417
H           49.43216285786257       -7.62995698278953        1.00269245622022
H           49.45182963057486       -5.15445486059160        1.19034269993737
H           45.48603019312943       -4.41224311102234        0.20126582870071
H           43.62230227974415       -2.46025818252378        0.15224778220742
Co          88.29411727256057       -0.03061948519917       -0.14340783397608
C           91.65981189458211       -0.06841053356651       -0.40119289145898
C           90.97418398496160       -1.24445041198193       -0.61269175392183
C           91.61585613155398       -2.48896892256868       -0.91019070470222
C           90.66491024295019       -3.44706323802272       -0.81725771266380
C           89.43732442605439       -2.78339547418698       -0.48776841760318
N           89.63071544106123       -1.42868837182029       -0.39917280921109
C           88.25535092692888       -3.44170321112344       -0.17600398492590
C           88.23959026344815       -4.92313949236823       -0.15178546082653
C           88.01161328290183       -5.60349106645262        1.04761933085544
C           87.99584153494628       -6.98482933501160        1.07267705696768
C           88.20248556128256       -7.71606616440775       -0.10172540829252
C           88.17669300299305       -9.18940094814335       -0.04979391593234
O           87.98133871621451       -9.82004674087983        0.95741555657646
C           88.42672218643740       -7.03613892908194       -1.30115004152849
C           88.44657560636351       -5.65273043530703       -1.32502510898524
C           87.07892814775515       -2.75809145425729        0.08837228824178
C           85.81960749678203       -3.40327915839874        0.31233988496332
C           84.87412344013782       -2.43451125725180        0.28516312153914
N           86.90781857560623       -1.39658258740746       -0.02414217897176
C           85.55804493692166       -1.20090119334835        0.05759262434864
C           84.90033260824281        0.01677640625393       -0.12762470449966
C           85.59384891851789        1.22133866362333       -0.25193714386523
C           84.94661081445201        2.48539850503784       -0.40930213274185
C           85.91142681952110        3.43028812462345       -0.30697412010812
C           87.14601627216570        2.73787787947661       -0.08994138710659
N           86.94504027282807        1.37743131658761       -0.11075506306060
C           88.35530283394624        3.36947220605656        0.16122023524073
C           88.37549053850053        4.84247525651347        0.30071846088078
C           89.13099027326473        5.62484700843885       -0.57726503313294
C           89.14375147143514        7.00275286188167       -0.45421650734564
C           88.40455872255244        7.62598013889081        0.55395415594871
C           88.40347610232328        9.09259907011905        0.70771708886441
O           87.78599047408471        9.67511474120800        1.56176039138270
C           87.64956496515650        6.84327284052123        1.43373312204521
C           87.63220187795076        5.46770698275271        1.30648679840473
C           89.54736606267704        2.66347959135664        0.24856735858217
C           90.82420412415472        3.26943348134954        0.49154110595441
C           91.75619701033376        2.30728299325648        0.29815390457624
C           91.04651958451348        1.10950010143753       -0.03317438686263
N           89.69155232443961        1.32339241780636       -0.00714346151267
H           92.73929017060628       -0.07886589335278       -0.49478335619353
H           92.66588051914088       -2.59728402228918       -1.13033167062412
H           90.77501323503151       -4.51180969304356       -0.94334653179094
H           87.86064080297326       -5.03843561242509        1.96041570070060
H           87.82456518203519       -7.52163557347134        1.99956615929990
H           88.35400762626416       -9.68323334670053       -1.02900114234107
H           88.58294947608262       -7.59608100955100       -2.21748293712262
H           88.60649977665118       -5.12734225362814       -2.25976656038337
H           85.68548686385759       -4.46461136744531        0.44285225935936
H           83.80647630068408       -2.53021909460186        0.39968378553207
H           83.88789558747226        2.61544148975016       -0.56531184750406
H           85.80926984566507        4.50089557473937       -0.37682798576841
H           89.69412499350513        5.14515666813939       -1.36988889412877
H           89.72796890043595        7.60280242741632       -1.14431780623720
H           89.02775849629801        9.62944060371271       -0.03809338301121
H           87.08044244068060        7.33599085708139        2.21471745759078
H           87.05402071554440        4.86282934525803        1.99581480970543
H           90.97383513912338        4.30038661136006        0.76825723124507
H           92.82946737035053        2.38039302584470        0.37233605126936
C           54.15824910535499       -0.04644579670024       -0.04718751054303
C           52.93558744747044       -0.04273125287051       -0.04042476649929
C           55.50626263266735       -0.04655112126693       -0.04778363063645
C           56.72916397663732       -0.04945670252748       -0.04295130282850
C           67.53974202962807       -0.00968838256401       -0.07907132475620
C           66.31676437331937       -0.01885450136507       -0.06917318359308
C           68.88738108535482       -0.00414969163073       -0.08387521753578
C           70.11046765370854        0.00077436934514       -0.08192343766085
C           80.92416978741934        0.04133446149673       -0.16010109984625
C           79.70214288403093        0.03884907992290       -0.14799547966653
C           82.27382251226426        0.03950439695459       -0.16065200905658
C           83.49568393021197        0.03220874854506       -0.15099293074598
Co          61.52296734652928       -0.03956816890937       -0.04192116597401
C           58.13055957174380       -0.04913300832202       -0.03332024789875
C           58.81098031611982        1.17068580468949        0.03732793649074
C           58.16068538392882        2.44186326699540        0.06019077366696
C           59.11328303244828        3.35934600269863        0.35893161270222
C           60.33945345946933        2.64009257147265        0.52545468566632
N           60.15204021385559        1.30457189064238        0.25966723026627
C           61.51581710896433        3.19401370330287        1.01438676979967
C           61.51166643374766        4.60151148343433        1.46714839687352
C           62.37827683929694        5.53398221949571        0.88810207197837
C           62.37365578924010        6.84821370934472        1.31343082446150
C           61.50652217289786        7.25985902530032        2.33084627610195
C           61.52680090970608        8.66763291699573        2.77097213866901
O           62.25926246262037        9.50210366560627        2.30527429424793
C           60.64037409609274        6.32958835921584        2.91000263619637
C           60.64121188792715        5.01462869505844        2.47985598374742
C           62.69705085995680        2.46783040098504        1.08197653640545
C           63.92820060839507        2.97253041875923        1.61069274037829
C           64.88760005261341        2.06893395277963        1.29393033401400
N           62.88863945751060        1.22487972296654        0.52443923319659
C           64.23559833194895        1.01043448484803        0.59068733759181
C           64.91555739883458       -0.02865736888083       -0.05253922826887
C           64.23358578467857       -1.08179863610539       -0.67007942719694
C           64.88208917785978       -2.14484947909288       -1.36938859189742
C           63.92903143679822       -3.07144374799786       -1.63605126897668
C           62.70452407625589       -2.57182160124789       -1.08829941291941
N           62.89338693679953       -1.31838488031548       -0.55595187391717
C           61.52958402323562       -3.30573939349144       -0.99133016778261
C           61.53419009255602       -4.72252455245492       -1.41460811650736
C           62.40721479581703       -5.63482010609487       -0.81500838951206
C           62.41461213860937       -6.96076764860644       -1.20975163726293
C           61.55327131156945       -7.39935796539438       -2.21809052924979
C           61.54520840663063       -8.80618844308582       -2.66232408631512
O           60.82333034452731       -9.22843255898737       -3.52837177770595
C           60.68164562061374       -6.48620315933368       -2.82029724465570
C           60.66949933689922       -5.16371757209406       -2.42109997956884
C           60.35039681245510       -2.74578862333049       -0.51801337455314
C           59.12203494291838       -3.46322627187495       -0.35682820189838
C           58.16331647195754       -2.54066479804740       -0.09762730657538
C           58.81282133504738       -1.26870184822831       -0.08557717622840
N           60.15870037227029       -1.40585933437158       -0.27420062809212
H           57.10916367540732        2.59555779723138       -0.12106549293663
H           59.00543214379110        4.42706297877267        0.45881761047529
H           63.04178437212128        5.22112432698755        0.08986796753288
H           63.03924511397535        7.57876172641296        0.86632052261108
H           60.80291899736407        8.90337412079835        3.57974616583705
H           59.96623177733870        6.63989760561829        3.70166530711220
H           59.97772580136745        4.29163636873181        2.94083850808455
H           64.03514325864977        3.90021447931048        2.14871308012321
H           65.94416583994597        2.10468762893109        1.50494705239379
H           65.93260294268578       -2.16851960171751       -1.61027019146227
H           64.03546402919602       -4.00959025708400       -2.15580423968602
H           63.06833404159083       -5.29937731811598       -0.02390169945630
H           63.09125058500503       -7.66356610492106       -0.73465093239989
H           62.26895410890136       -9.45748931952715       -2.12782029382464
H           60.01917529473873       -6.83518063679924       -3.60512284569192
H           60.00265457860883       -4.45535148644613       -2.89946682242478
H           59.01637088443704       -4.53265798663898       -0.43825637871648
H           57.10841406402568       -2.69123266650693        0.06556155228536
Co          74.90574671979718        0.00801503791930       -0.07240893638273
C           71.51198852564424        0.00170272205981       -0.07193382083925
C           72.19217161881070        1.21912369315017        0.02729655435580
C           71.53943376290103        2.48850603296112        0.07989104982597
C           72.49181732058288        3.40124218620696        0.39172165678361
C           73.72094637744388        2.68136273297368        0.53473640090283
N           73.53438670616941        1.35056457283031        0.24382391941318
C           74.90034234162006        3.23157411187477        1.01818993043981
C           74.89411178905752        4.63150132945582        1.49463805062723
C           75.74078888558753        5.58192981501723        0.91569343749885
C           75.72938679242716        6.88938001918346        1.36172696316357
C           74.87589283651492        7.27553967511804        2.40035391673542
C           74.88575155947406        8.67732819157165        2.86009779639258
O           75.59461162115190        9.52913645357806        2.38967165880727
C           74.03099146622816        6.32669925797661        2.98072553304402
C           74.03804534817424        5.01887231153097        2.52957302381093
C           76.08607270844203        2.50992512571818        1.05734163206618
C           77.32255376094093        3.01570988164751        1.57220593035837
C           78.28120289497939        2.11974738821579        1.23291919300681
N           76.27446217136492        1.27424322744025        0.48404058625055
C           77.62377315681734        1.06381819788864        0.53092138027397
C           78.29889298191016        0.02928485355080       -0.12222920133163
C           77.61456088614311       -1.02572313524895       -0.73136722476362
C           78.26099419793995       -2.09248268248163       -1.42690495880499
C           77.30924027270670       -3.02480116987006       -1.67737192393425
C           76.08704954937210       -2.52344048718028       -1.12645866062667
N           76.27480201475342       -1.26557254226342       -0.60621064369749
C           74.91277308022347       -3.25899223889145       -1.02546104338274
C           74.92220289839602       -4.68029081983999       -1.43359732328993
C           75.79204908241785       -5.58389428496116       -0.81642595213247
C           75.80000100011367       -6.91579590408567       -1.19041710581236
C           74.94228543107054       -7.36945149087441       -2.19527740938993
C           74.93076241055401       -8.78393410359650       -2.61317025693943
O           74.20854148507988       -9.22079472105945       -3.47189882050325
C           74.07618535892070       -6.46432309279078       -2.81745176371996
C           74.06392147941408       -5.13570711033831       -2.43925864626508
C           73.73156716924581       -2.69702453637884       -0.56250175197969
C           72.50044030552779       -3.41257846900325       -0.41229151316780
C           71.54079474600691       -2.48845053106686       -0.16358149073835
C           72.19273974945726       -1.21769042581790       -0.14296305123670
N           73.53936954039987       -1.35604066644648       -0.32133326783597
H           70.48656398389234        2.64346995174736       -0.09221365264090
H           72.38271410624479        4.46644640694093        0.51432471137462
H           76.39336986227327        5.28898299636468        0.10106751703934
H           76.37884552437340        7.63421357356046        0.91447320680527
H           74.17670766215377        8.89074913540875        3.68805376291649
H           73.36781499102283        6.61724704628036        3.78898679482352
H           73.39031276975862        4.28140769428453        2.99006426233921
H           77.43315027006381        3.93914595174099        2.11668755689777
H           79.34058585289017        2.15842418334602        1.42858114764407
H           79.30981106189918       -2.11493472214414       -1.67514080578184
H           77.41481033051231       -3.96763897608922       -2.18878363128857
H           76.44982906103877       -5.23682458178433       -0.02755795342565
H           76.47350271988161       -7.61180615026279       -0.70105914480207
H           75.65144442615156       -9.42740301137635       -2.06510647643859
H           73.41742382670624       -6.82476880645749       -3.60022361072417
H           73.40104427707176       -4.43399794848500       -2.93270890114141
H           72.39374482401450       -4.48192116578923       -0.49363745633411
H           70.48423081822888       -2.63741432244285       -0.00983378143066
