464
 energy: -800.260278323894 gnorm: 0.000223494380 xtb: 6.5.1 (b24c23e)
C           67.73780984068173        0.10903796217852        0.01432602981523
C           68.36829367707772        0.11713678515855        1.25177148434610
C           67.74692163807522        0.10359145178664        2.53277820085557
C           68.73222701799655        0.12480984818478        3.47916831731599
C           69.98743238654882        0.14891748145687        2.80688653848882
N           69.71729563044188        0.14678270323040        1.46731863246460
C           71.25956552253464        0.16833797143386        3.38502641050694
C           72.46739108516962        0.15024161710193        2.68721199772360
C           73.76652188496658        0.13118042501652        3.33465605746323
C           74.68555505891970        0.13207742292775        2.34666556564083
N           72.61791544097544        0.17145327249905        1.33445358084571
C           73.94570427666932        0.15753098114583        1.09924842911796
C           74.57303419431244        0.17303268671739       -0.16278160450311
C           73.91690294795802        0.20351576739604       -1.40698126077615
C           74.53193990521153        0.24220078132550       -2.68715833509573
C           73.54202577349547        0.27577381831146       -3.62964190045891
C           72.29115601068182        0.25502228619007       -2.95246264459259
C           71.02005886137674        0.27429482421835       -3.53096748574293
C           70.97282980044831        0.27963368381710       -5.02536055765539
C           71.04384666551049        1.42399136888031       -5.82377346314311
O           71.14811273077370        2.70486059946799       -5.38208812838228
C           70.84403674424357        3.10687287401287       -4.05955817717413
C           71.03587793175197        1.30223040418390       -7.21978489010337
C           70.94887134689462        0.06063824496584       -7.81473219110529
C           70.86341193246426       -1.09077128789882       -7.04082762849776
C           70.87869279377588       -0.97709321724819       -5.65564857610959
O           70.81703344196666       -2.04284330987879       -4.81219549833395
C           70.70037977052284       -3.35448533353571       -5.32540328312823
C           69.81207504624363        0.21121796682044       -2.83250602681352
C           68.50741366978299        0.18332032274312       -3.47425853935215
C           67.59510184283531        0.13533457049103       -2.48225781878748
C           68.34217052630075        0.14005182228727       -1.23629792995120
N           69.67365094885928        0.18886934284744       -1.48542569273169
N           72.56949859050624        0.21413594748508       -1.61137794675205
C           71.30542961457381        0.12698499094360        4.87871438027726
C           71.15238115005982        1.24052351184093        5.70871067126684
O           70.96838325105122        2.52234465333105        5.29404791600763
C           71.36042241449553        2.98820252050232        4.01562283807421
C           71.15240621540930        1.08008527309746        7.10023966810631
C           71.31507243581680       -0.17044439645923        7.66043318821485
C           71.48733382803978       -1.29007051258441        6.85516347341177
C           71.47855216766013       -1.13831387296897        5.47331173790604
O           71.61746582603028       -2.17331559763899        4.60154690912515
C           71.83840927181963       -3.48521178906327        5.07858415987055
H           66.65325413682379        0.07860526153440        0.03603934790813
H           66.68089614114335        0.08121105678353        2.69430621801645
H           68.61224564333591        0.12101153749176        4.55055646509100
H           70.42210308641698        0.14266988883110        0.73788063047478
H           73.92460101008224        0.11292800476321        4.40109814794547
H           75.76087327089462        0.11747658233518        2.42630770009061
H           75.59717928420143        0.24487194681448       -2.85349607744169
H           73.65801941146050        0.30898798640615       -4.70083181312678
H           71.61139039450997        2.77904085084044       -3.34986946422393
H           70.81904717018097        4.19921568272280       -4.07600868795099
H           69.86683738046951        2.72956840733161       -3.73990645143879
H           71.09852898283431        2.20599071673871       -7.81259726858852
H           70.94256034016293       -0.02079592147238       -8.89578504125959
H           70.79231824820714       -2.05743261811625       -7.52079540424318
H           70.65637609549989       -4.01679666662915       -4.45879497194833
H           69.78462411667449       -3.47420461958191       -5.91691680083634
H           71.56733432632977       -3.62403484388132       -5.94076628941500
H           68.34470538641753        0.19293716114160       -4.54032921065525
H           66.51917594615475        0.10005922920056       -2.55414590358714
H           71.86794753533303        0.17513586314240       -0.87955241484151
H           72.36960563395415        2.64965321673998        3.75811279383571
H           71.35169183335763        4.07930115219867        4.07595258603175
H           70.65960571793875        2.66933165582951        3.23636786724057
H           71.02406574071665        1.96000830817126        7.71777820342542
H           71.31480660401026       -0.28327316420519        8.73869297499499
H           71.61814698730124       -2.26337770693099        7.30848534381008
H           70.99324327295807       -3.84249986182035        5.67946657382773
H           71.94120875272706       -4.11656914674925        4.19404394262180
H           72.75769981935088       -3.54628004888326        5.67349484818220
C          154.84667377178764        0.08542558409851       -0.19221285423245
C          154.23437279763144       -0.05028766565203       -1.43141641003674
C          154.87484409970756       -0.19458510500590       -2.69481231038586
C          153.90350623718433       -0.29281475390001       -3.65074842747362
C          152.63830836211503       -0.21536233053004       -3.00175842347776
N          152.88844340980330       -0.06551356313248       -1.66676617003974
C          151.37452118208381       -0.28464278005308       -3.59461982140800
C          150.15747684658211       -0.24737739586367       -2.91412610275867
C          148.86804973102426       -0.36593361534760       -3.57032914568571
C          147.93528766986734       -0.26307309792294       -2.60075369793666
N          149.98748939348940       -0.06935815812718       -1.57507872351470
C          148.65705886120861       -0.07547561680376       -1.35652673549318
C          148.01142381244262        0.09402786166420       -0.11499847183061
C          148.64875571624540        0.28657145851696        1.12459028211239
C          148.01429214976886        0.47426419226979        2.38193867892698
C          148.98974763328621        0.62176402944347        3.32851236258201
C          150.25075066265694        0.52610676389270        2.67703745043190
C          151.51294483816173        0.61469767935607        3.26821746925315
C          151.53794288384464        0.78460703615069        4.75340596584978
C          151.44393277286159        2.00849830651873        5.42074637356377
O          151.33593771766081        3.23200288585236        4.83969328945571
C          151.66232627400194        3.49011226775481        3.48686705764697
C          151.43031908575307        2.03997875299523        6.82165650294227
C          151.51886073122114        0.87176994554766        7.55002122562522
C          151.62757754101924       -0.35625719511953        6.90802906801216
C          151.63359992136589       -0.39468878990598        5.51867969834150
O          151.71830405395309       -1.54553789374186        4.79784667535874
C          151.84051554984072       -2.79177653633974        5.45307757396316
C          152.73121287244527        0.48028363608146        2.59810220714291
C          154.02665343632088        0.53355508123906        3.25660990853428
C          154.95339726281611        0.38495595291344        2.28823703987294
C          154.22424280174465        0.24625444659289        1.03938662938455
N          152.88895171426327        0.31029044386415        1.26381592307795
N          149.99273408964072        0.32777356322409        1.34586221742222
C          151.35187479006908       -0.48859625684476       -5.07526149060422
C          151.50797864093605        0.53209382870339       -6.01677813113660
O          151.67243294921599        1.85244593360371       -5.73595459078704
C          151.22817369891359        2.44857607920885       -4.53056152665339
C          151.53454936694979        0.22473709320973       -7.38293696842588
C          151.39464197774836       -1.08033097812092       -7.80904275764368
C          151.21893605969893       -2.10967906289283       -6.89188800074210
C          151.20168738636488       -1.81184683928971       -5.53401160624406
O          151.05799525797420       -2.74991272266506       -4.55934216274230
C          150.86050720422281       -4.10783021946797       -4.89792214300549
H          155.93170473626367        0.06624280885932       -0.19614903795995
H          155.94335701979867       -0.21777904660087       -2.83878644035373
H          154.03950249314545       -0.41236660857843       -4.71350984683893
H          152.17285999273835        0.00009724992725       -0.95087762880825
H          148.72534725635373       -0.51392843076662       -4.62877613891719
H          146.86153992853542       -0.30517866492320       -2.69110996342630
H          146.94667493387453        0.49210286181741        2.53116849545713
H          148.85743812877149        0.78001273468179        4.38654750739522
H          150.90961756781832        3.08199385306214        2.80361852330592
H          151.68187585495235        4.57790377154769        3.38490581997859
H          152.64694923714328        3.08674840420971        3.22751570443045
H          151.34987413496404        3.00232083315572        7.31108533695061
H          151.50822184895529        0.90886442960895        8.63346539352711
H          151.69969115534076       -1.26392338674302        7.49181692457757
H          151.90505546115699       -3.54419216395059        4.66483777169400
H          152.74804162570447       -2.83512577626835        6.06736083808607
H          150.96683715232928       -3.00300891078607        6.08158745108773
H          154.17396180290308        0.66182732147026        4.31722540464267
H          156.02840104253758        0.36710014007979        2.37800191158672
H          150.70546424098626        0.20524027035066        0.63433420165662
H          150.21708420725457        2.11845330447226       -4.26970106572539
H          151.21916967184129        3.52627405975911       -4.71141919012946
H          151.90737839089167        2.23305272184733       -3.69850058678160
H          151.66500136653792        1.03535756876885       -8.08859182865153
H          151.41538586960482       -1.30745303819490       -8.86892161489696
H          151.10587612128509       -3.12715281089053       -7.24102969727785
H          151.72033221738525       -4.51557512466253       -5.44330865637457
H          150.74901343045687       -4.64317797072158       -3.95317310529178
H          149.95280922235483       -4.24370264583141       -5.49821060141419
C           79.77571514468326        0.13937843786047       -0.26005188388648
C           78.54791017486534        0.14761328519063       -0.24280387973788
C           77.20264334284705        0.15592160425005       -0.22043916369203
C           75.97943973698959        0.16375577777562       -0.19499660969987
C           81.12086782253176        0.12913439884138       -0.27595959794529
C           82.34446514387110        0.11684600840399       -0.28748394008189
C           95.83402052398782       -0.04938876555592       -0.23245787705647
C           94.60498649934539       -0.05056872020230       -0.23588355257257
C           93.26187325435107       -0.04547694818896       -0.24174234336445
C           92.03732299133762       -0.03413688083429       -0.24795705830063
C           97.17711063052556       -0.04561748980247       -0.23212311886377
C           98.40177626101568       -0.04309526550752       -0.23295914851805
C          111.88863286281290       -0.02516513168628       -0.17531388982234
C          110.65958263866956       -0.03797453826866       -0.17662945430563
C          109.31677434468644       -0.04906189066754       -0.18082143331284
C          108.09206267539956       -0.05422588192261       -0.18459089640675
C          113.23144614983903       -0.01152117400917       -0.17399414737674
C          114.45611209119130       -0.00173149673031       -0.17383381665953
C          127.96196249025537        0.04852250313729       -0.15815532039056
C          126.73292774448561        0.04286878799174       -0.16017475443769
C          125.38999884558069        0.03648151385313       -0.15998911386404
C          124.16531556567912        0.03294507943538       -0.15858978077231
C          129.30493791302615        0.05319137435039       -0.15476884830513
C          130.52956593823242        0.05468138204366       -0.15175379123116
C          144.03658627768880        0.06532046489697       -0.08137915424908
C          142.80854931667417        0.06191450641441       -0.07719069874751
C          141.46358827090540        0.05842704199366       -0.07720079764260
C          140.23981312081176        0.05937156758213       -0.07980112052435
C          145.38168088405627        0.07177480259166       -0.08877377988549
C          146.60519266708852        0.07974330149577       -0.10095130289119
C           83.75019296580015        0.10159625962438       -0.29989084964497
C           84.39592188348168        1.29848426991805        0.06250726747462
C           83.76879854353319        2.51464872508453        0.44120928709085
C           84.75106303839380        3.42739116126590        0.71013529434686
C           86.00714287860208        2.79574122043824        0.49986775904623
N           85.74126035316935        1.50972815962482        0.11307797057421
C           87.27439581178226        3.36213624907231        0.67099486657716
C           88.49142041168889        2.70636906535134        0.49211552715529
C           89.78351162970658        3.34845150939672        0.65427391193225
C           90.71437256319639        2.40667457431939        0.39877342169783
N           88.65918282584799        1.40316939917756        0.13251756043925
C           89.98903913937492        1.19352636818294        0.07372710699155
C           90.63401667981870       -0.01563545435124       -0.25845000597639
C           89.98964791114773       -1.21634266975111       -0.61489209455904
C           90.61436921961101       -2.44113078839914       -0.96679862046833
C           89.63059929182758       -3.34455110065382       -1.26423131709444
C           88.37681196943851       -2.69585251005892       -1.10013045089955
C           87.10988124974257       -3.24830825775929       -1.31089674474653
C           87.07982556778857       -4.69025095531868       -1.70722083768186
C           86.96614010671848       -5.62499111290342       -0.65892076014943
O           86.87728354672505       -5.08640596387253        0.58734914467980
C           86.72187282210410       -5.92105333313468        1.71714163885377
C           86.95853111273659       -6.99229134766169       -0.90808284448535
C           87.07130191033859       -7.44097440570254       -2.21884159541843
C           87.17905596529818       -6.54436630714408       -3.26156049650822
C           87.18000836616665       -5.16417886949909       -3.01769516731229
O           87.30627966307388       -4.40725797563307       -4.13852180808986
C           87.02957812440170       -3.02004207865154       -4.18792298405334
C           85.89259192671025       -2.59917607010422       -1.11172151311412
C           84.60307284691012       -3.23594259102898       -1.30841719715906
C           83.66976137220017       -2.30222207152701       -1.02861551764062
C           84.39203605695181       -1.09814825708368       -0.66665296962956
N           85.72294487142678       -1.30351136412235       -0.72985176632828
N           88.64462297621412       -1.41154470905612       -0.70608753308931
C           87.30687248159661        4.79576033441853        1.07901023857987
C           86.89805197230794        5.79483599323450        0.18557342998657
O           86.48449705017087        5.36558205575066       -1.03652273365624
C           86.07258053750370        6.29457096239539       -2.01932559404420
C           86.93880465955337        7.13678364907114        0.56205955810544
C           87.38131479873310        7.47341857882060        1.83237356091814
C           87.78408353627104        6.50170998232407        2.73577792465399
C           87.74858520249263        5.15974816977980        2.35831469868111
O           88.11104940282972        4.13608085521990        3.17443126541450
C           88.60766257397572        4.39532923427930        4.47228244739166
H           82.70219167578770        2.66093846848931        0.49916524217163
H           84.62214275659554        4.44925022021359        1.02744026324330
H           86.44811675446789        0.81327034229106       -0.09753422541517
H           89.93312435215120        4.38113472615913        0.92472443121152
H           91.78875751973719        2.49778566614807        0.41613316684502
H           91.68043424798189       -2.60043736833873       -0.98804355408706
H           89.75455310528005       -4.37083749474978       -1.56971474439665
H           86.65254879398327       -5.25515554981675        2.57934732075695
H           87.58291211775624       -6.58815423045086        1.84603757954021
H           85.80577486561009       -6.52032666737923        1.65041436986547
H           86.87208084379721       -7.70646206283920       -0.10040212712466
H           87.07045849768910       -8.50617478757516       -2.42063551823419
H           87.26356243792858       -6.88255597226319       -4.28655987771870
H           87.04211225285354       -2.74952103888433       -5.24651715130615
H           86.04319227160437       -2.79230655165446       -3.77013368842197
H           87.79238573392048       -2.43574851896342       -3.66203963151506
H           84.46046925517604       -4.26057862190318       -1.61243911771657
H           82.59557032748158       -2.39312141062177       -1.05577816544083
H           87.93991586082039       -0.71175237386403       -0.49901202405931
H           86.88337099198745        6.98339592997547       -2.28523334689686
H           85.20094725762200        6.87116448410677       -1.68678699420568
H           85.79922004748816        5.70638690948545       -2.89730232079497
H           86.63052285848418        7.91596391528731       -0.12200103872548
H           87.41157417535237        8.51706146521757        2.12542688298103
H           88.12031207182618        6.79300205533741        3.72179132073852
H           89.51629841001079        5.00842757741982        4.43882871416324
H           88.84715943778636        3.42241474269462        4.90529849475151
H           87.85692983785270        4.89307045375822        5.09794032582734
C           99.80506366882329       -0.04011575006117       -0.23677200200885
C          100.43385380749491        1.17198528595904        0.10902868333681
C           99.78854540648462        2.38365612372361        0.46912733366858
C          100.75728895805970        3.31275204628188        0.73318641164132
C          102.02228044684226        2.69543397857634        0.53749090158760
N          101.77568457167408        1.40168854429021        0.16371695681338
C          103.28155520814136        3.27979384759722        0.71051101890970
C          104.50749712403253        2.63934700472433        0.54081542659371
C          105.79031068423262        3.30002514072619        0.70183038003782
C          106.73451390502744        2.37009841497315        0.45210942894065
N          104.69409512658380        1.33610804324131        0.18913697635882
C          106.02650930621692        1.14512851509520        0.13295038542945
C          106.68901842491256       -0.05674137748086       -0.19206603004651
C          106.06260362298239       -1.27037652302193       -0.53732448367695
C          106.70587276163457       -2.48852499336470       -0.87848752486371
C          105.73576476642269       -3.41078340051115       -1.16305465600837
C          104.47241890958882       -2.78053985978849       -1.00193480514166
C          103.21354634320942       -3.35579683790768       -1.20037669586621
C          103.20562593923077       -4.80217139418282       -1.58055555009222
C          103.09038591346311       -5.72786543499125       -0.52459866805347
O          102.97586962379137       -5.17857404006627        0.71484945786771
C          102.81914292105355       -6.00451678062014        1.85084662852694
C          103.10738241274564       -7.09752692021439       -0.76033318725042
C          103.24708280270131       -7.55738736909849       -2.06457949389786
C          103.35577434090533       -6.66961418603541       -3.11486892954132
C          103.33122048659213       -5.28748257487311       -2.88472978629833
O          103.46201959666000       -4.53755554269859       -4.00994007708995
C          103.12804891250434       -3.16378248656459       -4.08143367543364
C          101.98707467984465       -2.72347215175308       -1.00511412117851
C          100.70711243201660       -3.38146258488148       -1.19120547903716
C           99.76051084906902       -2.45709448066382       -0.92447932626429
C          100.46554428140566       -1.23777070642835       -0.58098060904205
N          101.79864672403174       -1.42456903789267       -0.64109171547201
N          104.72079093493457       -1.48777995518845       -0.62253059252699
C          103.29354192317079        4.71609115651877        1.11025459173714
C          102.88042958129303        5.70557067852543        0.20824686551444
O          102.48219335655001        5.26515705813698       -1.01491458112547
C          102.07276810960374        6.18467290133831       -2.00765923587205
C          102.90228243657796        7.04981777581806        0.57813069922168
C          103.33058729415100        7.39815692781654        1.85015822509542
C          103.73759723044388        6.43595647942079        2.76179402939478
C          103.72081418260754        5.09175626079734        2.39108377056625
O          104.08853544794701        4.07654640283646        3.21534036329830
C          104.57770625636201        4.34862326879138        4.51344608780873
H           98.71979999110691        2.51645270981014        0.51953147722055
H          100.61290910307216        4.33643731429028        1.03765963230663
H          102.49308903508103        0.71238021677571       -0.03448729270472
H          105.92500253952916        4.33610590210612        0.96708829063171
H          107.80749960920130        2.47622492616783        0.47032860775452
H          107.77426268436228       -2.63111161057401       -0.90123305525269
H          105.87538852831419       -4.43820453157106       -1.45772501393154
H          102.72860294820147       -5.33141579399411        2.70545527450761
H          103.68875729226227       -6.65675259501043        1.99705360883187
H          101.91339015989114       -6.61868027113062        1.77866016345738
H          103.01985275406963       -7.80498836994310        0.05312037395398
H          103.26604805235704       -8.62443353743607       -2.25541489313655
H          103.46033916702355       -7.01658981909934       -4.13506133553613
H          103.13660556627615       -2.90770167279804       -5.14366301000451
H          102.13024621811465       -2.97175243173332       -3.67295357896160
H          103.86214632897348       -2.54076659813558       -3.55911921781349
H          100.57902604577525       -4.41229605780476       -1.48030185123238
H           98.68775466869758       -2.56388673570222       -0.94973982277845
H          104.00536685536113       -0.79733569530221       -0.42084805489999
H          102.87905170948980        6.88158188806276       -2.26606675621528
H          101.19019798150438        6.75271138419260       -1.68951394954921
H          101.81796533527417        5.58925144732339       -2.88632427315548
H          102.59024121504434        7.82180678378624       -0.11234678970861
H          103.34616045216093        8.44356811812781        2.13801040313915
H          104.06253525591200        6.73624154605451        3.74888934217366
H          105.48057178635197        4.97011186066702        4.47933272187399
H          104.82474587948101        3.38076051421472        4.95347501600603
H          103.81999294594853        4.84310857575761        5.13323294718020
C          115.85903272896017        0.00703070499680       -0.17226512924368
C          116.48398663614920        1.21559881312228        0.19294673739123
C          115.84015994610975        2.42526618734866        0.56126182919656
C          116.81009395679412        3.34610014520194        0.85146438443747
C          118.07392214141099        2.72363414003490        0.66603592278659
N          117.82632666870646        1.43660626783033        0.26877307868837
C          119.33215831807635        3.30266569008222        0.86131955542654
C          120.56132260279345        2.68293231843919        0.64620252851727
C          121.83719790621900        3.35105527784483        0.82770624468672
C          122.79004359086723        2.43750219326888        0.54697356977599
N          120.75925621240553        1.38945041250452        0.26637677579058
C          122.09353827406063        1.21500458261786        0.19723750313599
C          122.76241023116442        0.02490875692010       -0.15781927900511
C          122.13749052347238       -1.18451971133846       -0.51965672037644
C          122.78155459466700       -2.39596311056190       -0.88269367047823
C          121.81195940130178       -3.31831316954436       -1.16798865637990
C          120.54772310093470       -2.69498359782559       -0.98635371220223
C          119.28980486615441       -3.27493982572735       -1.17730354243688
C          119.28748711839251       -4.71840038084828       -1.56906764974063
C          119.19143859873013       -5.65255596583024       -0.51865166137407
O          119.08812017667239       -5.11306057516293        0.72625311204730
C          118.94851129864031       -5.94883273499097        1.85744466734243
C          119.21524778214300       -7.02023508654496       -0.76475426876005
C          119.34258438256335       -7.46946335038961       -2.07396596122323
C          119.43266899815511       -6.57328527344586       -3.11885160307980
C          119.40123920433136       -5.19309839518388       -2.87825686003297
O          119.51447365168515       -4.43377169430210       -3.99892386187965
C          119.16645590136628       -3.06285715143889       -4.05723997127695
C          118.06024410861330       -2.65337106728020       -0.96656894145009
C          116.78459301254514       -3.31929146738179       -1.15567708454156
C          115.83156702484635       -2.40421278408527       -0.88042459018387
C          116.52793734018893       -1.18306489682626       -0.52636768222825
N          117.86272596437409       -1.35974302219814       -0.58877839046445
N          120.79535954774030       -1.40585568288884       -0.59461120279797
C          119.33489846944667        4.74552625902355        1.25697096634541
C          119.34345779939929        5.67960657587248        0.20168332995088
O          119.36033141974467        5.13866245185699       -1.04688418638877
C          119.40510937720549        5.97383415148909       -2.18623369108689
C          119.32846289423843        7.04739071984383        0.44676678161616
C          119.29882957739564        7.49753068179391        1.76159547678798
C          119.29092979583380        6.60208464580956        2.81053085458421
C          119.31179071846786        5.22103423488609        2.57051117797019
O          119.28376046386295        4.46921917253735        3.70079628907679
C          119.52955851426623        3.07604421287682        3.73343515515278
H          114.77156351125920        2.56345525252230        0.59735748932724
H          116.67012377782687        4.36776238409682        1.16540972261417
H          118.54124039878738        0.74987341133571        0.05337494367299
H          121.95806371174085        4.38076460358084        1.12378618101305
H          123.86197522642306        2.55355005941663        0.56530215570070
H          123.85015023302226       -2.53425920613144       -0.91800889877627
H          121.95239376789085       -4.34162319980826       -1.47619508524338
H          118.86267839241225       -5.28297610771686        2.71819976900891
H          119.82372700980368       -6.59654477636444        1.98945294943634
H          118.04593993655418       -6.56811259317976        1.78980609106872
H          119.14250161455134       -7.73426009653834        0.04438853059617
H          119.36669317151649       -8.53490466254104       -2.27290027930917
H          119.52762814352427       -6.91200978682083       -4.14273524901671
H          119.16384151194009       -2.79875385807009       -5.11750795256335
H          118.17013152574930       -2.88393500735133       -3.63926536016329
H          119.89852602483732       -2.43648752753999       -3.53608073218604
H          116.66359640443204       -4.34837541919956       -1.45381867357573
H          114.75959809787321       -2.51843659884054       -0.90554574602984
H          120.08030748472090       -0.71856726839124       -0.38151068580243
H          120.30413060162904        6.60191797300252       -2.18826032804810
H          118.51610733034684        6.61286335415967       -2.25164619295563
H          119.43147119759549        5.30742310459977       -3.05042326445476
H          119.33554895023684        7.76060644126163       -0.36628393739115
H          119.28398839468503        8.56302384299664        1.96118017765874
H          119.26928498863690        6.94148624250854        3.83838736960579
H          118.73598378394472        2.51210992333036        3.23149351724726
H          119.54730041708869        2.80073223327515        4.79065477663172
H          120.49575827169042        2.82806196923096        3.28124469399995
C          131.93266974906339        0.05876960320018       -0.14492136763726
C          132.55892321989623        1.26051560803088        0.23930584223111
C          131.91616559443759        2.46735129050312        0.61968412439054
C          132.88675301719525        3.38201942253322        0.92537259370096
C          134.15027359022119        2.75881198801847        0.73804010471210
N          133.90131020494019        1.47711182797880        0.32445604251251
C          135.40816490733087        3.33196436254701        0.94882442377862
C          136.63740650635708        2.70933774763376        0.73806304448707
C          137.91429144108858        3.37194047435583        0.93432671221728
C          138.86614714934188        2.45784051380859        0.65235526615169
N          136.83331584064834        1.41984940043212        0.34709654784892
C          138.16840493004108        1.24126171400352        0.28471309130423
C          138.83444516297695        0.05602719637424       -0.08657265969275
C          138.20901262116794       -1.14328353660413       -0.47645374829911
C          138.85206857765061       -2.34957514008035       -0.85920284271089
C          137.88198746135362       -3.26361187961291       -1.16744972777442
C          136.61802021311394       -2.64069817401435       -0.98059033176920
C          135.35982358702361       -3.21458486065860       -1.18792139103963
C          135.35682104548476       -4.65011796366498       -1.60782492030914
C          135.25149683383790       -5.60529605493422       -0.57745007229972
O          135.13938187166974       -5.09133221167189        0.67742345110687
C          134.99168426131737       -5.95005448578083        1.79027131989473
C          135.27557598217902       -6.96773296720092       -0.85131135892066
C          135.41262633544707       -7.39039037591056       -2.16834617521879
C          135.51160406383664       -6.47322744090698       -3.19408510933887
C          135.47980460900536       -5.09826508682689       -2.92554167021072
O          135.60276996474875       -4.31592951803578       -4.02934357788624
C          135.24850019636281       -2.94574671403382       -4.06365610984976
C          134.13076999437615       -2.59427478480461       -0.97110056406053
C          132.85426175421600       -3.25413926997181       -1.17626378880818
C          131.90221092176211       -2.34158195053322       -0.88978094624007
C          132.59999691010617       -1.12775751358891       -0.51338942300977
N          133.93449852642823       -1.30662097854452       -0.57294026291187
N          136.86637706681941       -1.36015647538918       -0.56313803207185
C          135.41224286716471        4.77276720129744        1.35188010823961
C          135.36645473937017        5.70966533897885        0.29967154096776
O          135.33056778909744        5.17146864182819       -0.94985399005614
C          135.31238598871565        6.00950720473995       -2.08786876337259
C          135.35602240347274        7.07671532736368        0.54810474871778
C          135.38587863557169        7.52382960832105        1.86401814517752
C          135.42873677697656        6.62600490214791        2.90985402387882
C          135.44403701415797        5.24525618996496        2.66634665879260
O          135.46733404558412        4.49360095911511        3.79640691076247
C          135.65222806525594        3.09112708494397        3.81708102099185
H          130.84773977314282        2.60758305587903        0.65276382915153
H          132.74786168952849        4.39990294288882        1.25182053610503
H          134.61551349410757        0.79125118813908        0.10408443471726
H          138.03626201058114        4.39882524751168        1.23958184705439
H          139.93827883928910        2.57029452994169        0.67879632250470
H          139.92051303404165       -2.48987324402859       -0.89113964042809
H          138.02158150353068       -4.28119703849472       -1.49442353166577
H          134.90042673410207       -5.30196264195816        2.66392335375541
H          135.86563360450714       -6.60094768225957        1.91479722324884
H          134.08925362013204       -6.56720697008607        1.70387808468067
H          135.19580447303338       -7.69804301156820       -0.05750802220632
H          135.43720935039266       -8.45159590388830       -2.38872692079770
H          135.61406586135601       -6.79113847975077       -4.22390438100252
H          135.25127335262121       -2.66127365406122       -5.11864767726973
H          134.24873098432516       -2.77961589100246       -3.64864773781398
H          135.97421464885878       -2.32605834261545       -3.52588853857370
H          132.73226196935011       -4.27796951661328       -1.49160832417051
H          130.83006624727605       -2.45278883688555       -0.92099581244307
H          136.15174570517729       -0.67540638642457       -0.34071781170352
H          136.20514116213405        6.64485409122707       -2.13275438684885
H          134.41612654922227        6.64139504251977       -2.10758440584211
H          135.30128230162711        5.34521272444939       -2.95402951304155
H          135.32240299405277        7.79163264843383       -0.26276353055185
H          135.37580139964672        8.58877692496858        2.06670261590430
H          135.45115563090297        6.96297956818437        3.93849143607672
H          134.82895995207869        2.56549280317946        3.32154309590495
H          135.67110710450675        2.80854356490718        4.87233903244429
H          136.60132844843349        2.80435744890630        3.35157351875713
