394
 energy: -759.207855845642 gnorm: 0.000800673444 xtb: 6.5.1 (b24c23e)
C           75.32438531158924       -0.17752537860118        0.04108501784140
C           75.92902591089923       -0.97186115237825       -0.92436723560727
C           75.27212245852738       -1.76342409056663       -1.90814474606342
C           76.23016477280090       -2.40151652694485       -2.64417374875735
C           77.50384004859585       -2.02929019672415       -2.12654505950276
N           77.27114893131997       -1.15712522819434       -1.10097840356500
C           78.76495421323889       -2.44706469359034       -2.56629391735772
C           78.79404458570353       -3.42452437969705       -3.68266907735595
C           79.42620254789222       -3.08718763498872       -4.88270542776277
C           79.44572275083060       -3.99694712377866       -5.93232196183605
O           80.03733342558749       -3.73327833646711       -7.13981864624093
C           78.84463542574437       -5.24507815285327       -5.79047191296191
O           78.85200929582182       -6.16138296044501       -6.80908336929538
C           78.21701290889490       -5.58482374427531       -4.59089669923125
O           77.63863128702872       -6.80365112831080       -4.46121028189650
C           78.18862179557718       -4.67350266169800       -3.54162745355957
C           79.98104675435603       -2.00947815146011       -2.03492530499558
C           81.27719436967024       -2.51437707674014       -2.45096538752164
C           82.19868102469756       -1.84701092232215       -1.72556006440600
N           80.13667815873077       -1.07165784065761       -1.06068904911990
C           81.46434027402817       -0.94195063428184       -0.86287886756553
C           82.10162576228808       -0.04840419338560        0.02085370667573
C           81.46913791311735        0.82740273312086        0.92252681573744
C           82.11579673039500        1.74606000326556        1.79148528160340
C           81.15379757560001        2.37675265023539        2.53048813150011
C           79.88867982466031        1.85539516819648        2.14113124139600
N           80.13063555241598        0.93371112215977        1.15671228579784
C           78.63080226772652        2.21022733102603        2.64076534144386
C           78.60364849758685        3.19067024202152        3.75318783371193
C           79.26634710045215        2.91176150735828        4.94935708115045
C           79.23424594047196        3.82646743146810        5.99526186627778
O           79.86853412160593        3.56078933221263        7.16325727587913
C           78.54328785810142        5.03000652080877        5.84555961136228
O           78.53047746594214        5.91349348551211        6.89265336359814
C           77.88586949663865        5.31074635666394        4.65040756146637
O           77.23362652126140        6.51352237119443        4.57596693002037
C           77.91112032035950        4.39592346323203        3.60531477862087
C           77.41439681824134        1.70487315766912        2.16769512916145
C           76.11412677751355        2.03222476074864        2.73189684923882
C           75.19955161920424        1.36910078407929        1.99563199234105
C           75.94037178403104        0.62449254689474        0.99308876285603
N           77.27095694776116        0.84222057928340        1.13376804787907
H           74.23911636848689       -0.19486258917308        0.04801861657545
H           74.20234082788640       -1.82334546274050       -2.02985594500210
H           76.07449440612574       -3.06779350706283       -3.47703385411729
H           77.99981044410451       -0.71460089229486       -0.55104197011695
H           79.88371170971566       -2.11246937214834       -5.00487524320395
H           80.43073121248948       -2.85081045349137       -7.14419688994530
H           79.32529814941340       -5.76950351400511       -7.56023507112785
H           77.76623215912514       -7.29193875183496       -5.29130700948188
H           77.71332171055724       -4.95458923234447       -2.61071532603452
H           81.43818473354141       -3.28646670835782       -3.18594602215508
H           83.27232413300709       -1.94527762566552       -1.74746962540633
H           83.18189763631096        1.90024528249244        1.83536360830090
H           81.30374069794725        3.14236105169716        3.27402307446651
H           79.40706120515539        0.40757716885817        0.67793547983034
H           79.78923568902762        1.97374510640067        5.08454702428722
H           79.72587023080828        4.30974425390347        7.76527638390390
H           78.00636212193024        6.68549635377241        6.62594983346012
H           76.80033595959156        6.61698568129773        3.71861446481794
H           77.41093683634399        4.62916686928975        2.67272975004456
H           75.94796347541511        2.67104105154361        3.58442544868698
H           74.12627575528279        1.35565220280604        2.10411356805734
C          149.31230674631610       -0.07899271956003        0.23289622973495
C          148.70910402812257        0.70901972433313        1.20444096978908
C          149.36845016410459        1.49734202333657        2.18911488224112
C          148.41194503670445        2.11547720511517        2.94391275813905
C          147.13637173025327        1.71482557703834        2.45286365366319
N          147.36709701639811        0.87609856842807        1.39927317909568
C          145.87584109997474        2.10124617483712        2.92196988190203
C          145.84937793680191        3.01290842417874        4.09296920461986
C          145.25663359431437        4.27330605480231        3.97725078129865
C          145.23999331589536        5.13140544376259        5.06959285757052
O          144.68556591902779        6.38388039666922        5.02841903997651
C          145.80546014239366        4.73796668917760        6.27980531481001
O          145.80048830795567        5.56447466328011        7.37276868779162
C          146.39378448264947        3.47775399150167        6.39785414289389
O          146.93786098447586        3.10257822502324        7.58126280529474
C          146.41860398176001        2.61971857357696        5.30449643933521
C          144.65858902038912        1.69237579002952        2.37072072894080
C          143.36086083232237        2.04243655375175        2.91989210953029
C          142.43917762269334        1.45976264185625        2.12523246504228
N          144.50294884404775        0.90024448116600        1.27476041897268
C          143.17458206213763        0.74927111251366        1.09704883533056
C          142.53717787907138        0.01698014387534        0.07611456091408
C          143.16747804318027       -0.72613188303826       -0.93887691175946
C          142.51770671679293       -1.41192331604077       -1.99961445576952
C          143.47920907255522       -1.99480545071141       -2.77711508960989
C          144.74734622326230       -1.69411153237242       -2.20650557283479
N          144.50680691189947       -0.91765724545251       -1.10338755643341
C          146.00676581093762       -2.08481811618308       -2.67360944645544
C          146.03858201797237       -2.94058881703913       -3.88473617319230
C          145.40105304875519       -4.18175692784136       -3.89006539765500
C          145.43388277839338       -4.97827252856944       -5.02877480214297
O          144.82288236633985       -6.18788151665075       -5.04150381833115
C          146.10051531863112       -4.53193549766650       -6.17107302203407
O          146.11296597669067       -5.33673083739599       -7.27978602380708
C          146.73485003999957       -3.29222716468214       -6.16664929253899
O          147.36493141632562       -2.91989874772870       -7.32515336664579
C          146.70904045470672       -2.49662608208266       -5.02828997460899
C          147.22306652975277       -1.72390974891826       -2.08266201127194
C          148.52330368927070       -2.20048333181102       -2.52801378943674
C          149.43720207545803       -1.63815292395480       -1.71143120379516
C          148.69637282264867       -0.82571634465956       -0.76296776059154
N          147.36614989148660       -0.90904085628451       -1.01079931387679
H          150.39706211707372       -0.10595959992071        0.26055490415218
H          150.43893328722405        1.57810554843560        2.29107050138254
H          148.57022690957467        2.79499992264271        3.76549459456028
H          146.63704910883519        0.44365549734334        0.84312999394232
H          144.82753043280078        4.59163989204313        3.03446422902250
H          144.31293546354439        6.56578201974862        4.15572654087431
H          145.35505054800524        6.38920137802265        7.12137550864219
H          146.81855103569180        3.82859392485575        8.21561646401831
H          146.86270589962612        1.63864464112773        5.41313380973283
H          143.19850103473169        2.63757871402143        3.80400933769041
H          141.36451985839514        1.48536019031673        2.21055121354037
H          141.45004980077007       -1.44144414819148       -2.14604612562169
H          143.32648259633160       -2.57496018634318       -3.67235852914393
H          145.23268208752506       -0.53756221212203       -0.50481211258253
H          144.89689397014376       -4.54729268205275       -3.00478917673996
H          144.95815834807175       -6.58928672909424       -5.91575126718690
H          146.61619167881517       -4.88175926156298       -7.97373563888473
H          147.78014090876673       -2.05303544854128       -7.22690897269227
H          147.19100022735714       -1.52606252910047       -5.03782148857184
H          148.68904569021385       -2.88555957653697       -3.34395135506629
H          150.51018863415737       -1.75002205389418       -1.71992310090674
C           84.73055984171891        0.00593903153043        0.01022335171651
C           83.50906002826827       -0.01980783469516        0.01288775678638
C           86.08098342479498        0.02315159410659        0.00526844970475
C           87.30275234043353        0.04048657300271        0.00336654585889
C           98.18935394820748        0.03302792169181        0.02168195060686
C           96.96640624887705        0.03817111820610        0.02588457402075
C           99.53767139155097        0.01796392669595        0.01708145815383
C          100.76054759305842        0.01001381265124        0.00777288637601
C          111.64741811524102        0.00342290517359        0.03978228504006
C          110.42440414058230       -0.00480158191396        0.03353857774785
C          112.99569058835726        0.00605468134015        0.04012994185035
C          114.21863942622817        0.01677574663425        0.03837696394066
C          125.10443607291685        0.01135624133393        0.05952806496261
C          123.88154391298795        0.01040325656935        0.05339402424542
C          126.45270350183407        0.00729012256499        0.05307023794160
C          127.67562694596545        0.00893286090824        0.04182126871307
C          138.55710620079660        0.01991425990256        0.01007146366025
C          137.33556076762326        0.01220421324302       -0.00988248449811
C          139.90771430541926        0.02034862560257        0.03147617564918
C          141.12916332947211        0.02252427686682        0.05371366535137
C           88.70966355309059        0.04249944349744        0.00391385532307
C           89.33310911892301       -1.21880797878703       -0.04333739574870
C           88.68003745325800       -2.47819921030009       -0.04756053910359
C           89.64153050488359       -3.45048079606153       -0.09662178126586
C           90.91045947547545       -2.81136640379618       -0.13515187356889
N           90.67328434893966       -1.46340309907408       -0.09201413992636
C           92.16874189037192       -3.42483522432919       -0.18837963148762
C           92.17758307703313       -4.90700016587319       -0.25981644694415
C           92.78966303071273       -5.65440356989781        0.74702738113418
C           92.79606864414370       -7.04586001958749        0.70361251133174
O           93.37907378826857       -7.78389202805608        1.68361490823722
C           92.18938939870493       -7.70925112703276       -0.36801257747062
O           92.18144926092231       -9.06531279690908       -0.44065404560319
C           91.58379878267746       -6.95367988156012       -1.37557564440343
O           91.01245428482973       -7.66469395212031       -2.39932586598496
C           91.56747322813028       -5.56665649245457       -1.32858859652945
C           93.39437851395576       -2.75702115677261       -0.17577169604987
C           94.67933274651458       -3.42038179060303       -0.30382644020944
C           95.61752678642434       -2.45246823384824       -0.24343272440107
N           93.57314659049852       -1.41132962372950       -0.06182538470422
C           94.90416164905517       -1.20034785947969       -0.08845879096726
C           95.56198722802873        0.04212076709086        0.02251005889747
C           94.93791203282045        1.30013062300686        0.13089200781348
C           95.59005336504467        2.55185816315236        0.27593014520538
C           94.62839452119763        3.52344199259016        0.33201761381443
C           93.35997818281294        2.89269075737196        0.21352025940425
N           93.59816836003780        1.54811688336522        0.10511646663295
C           92.10225772355551        3.50765529969519        0.22198252490400
C           92.08902095884453        4.98977111152912        0.31135723174377
C           92.68887970558652        5.75813546534558       -0.68667324870598
C           92.66599667283808        7.14570466199783       -0.60693067917180
O           93.23699334933578        7.90130888855501       -1.57633185033227
C           92.05011607271416        7.76975679848302        0.47913766772355
O           92.04549979218589        9.13876588840005        0.53246085373752
C           91.45690150925861        7.00233483934076        1.47842395632669
O           90.87696678129343        7.68533605759404        2.51489336115584
C           91.47066636868348        5.61553569791857        1.39726941741142
C           90.87600768318946        2.84306727366559        0.15133776313262
C           89.59114652473198        3.51742132502652        0.09709610343813
C           88.65265715894907        2.54955313646699        0.04233584585374
C           89.36554350892038        1.28781331473499        0.05143763513615
N           90.69747728252993        1.49441108560070        0.10770898769916
H           87.61139560893888       -2.61469652441934       -0.00880928452853
H           89.48619079658991       -4.51695391250374       -0.09474196311600
H           91.39739363471249       -0.75284942596840       -0.08386305290253
H           93.25018148373360       -5.15059085407374        1.58934701418069
H           93.76264959826460       -7.21736046862732        2.36585441471115
H           91.71506665887900       -9.32332766550992       -1.25206249984105
H           90.62077431957920       -7.07218511520325       -3.05397550337971
H           91.10373517137155       -5.00387120749450       -2.13025309212851
H           94.82260195921340       -4.48031847840280       -0.43799370037153
H           96.68969265976226       -2.54960836029991       -0.30477568119114
H           96.65853931756051        2.68276425501821        0.33448149643777
H           94.78197144617691        4.58329548198924        0.45277882720829
H           92.87484790707690        0.84157731337577        0.02256825123553
H           93.15474558135726        5.28560391066641       -1.54177624292315
H           93.11329854986614        8.83710627787428       -1.34669275129592
H           91.57780249446365        9.40489692755257        1.34009736779105
H           90.48643975133301        7.07447902146248        3.15356648361771
H           91.01773652674142        5.02433320687223        2.18440745800388
H           89.44781919258027        4.58578215902870        0.08614757458225
H           87.58061944873917        2.65293533735039       -0.01103033296633
C          102.16472891518862        0.00498317397645        0.00075950004772
C          102.78787359906725       -1.25849090404649        0.00155451704908
C          102.13549058678991       -2.51727477668273        0.04011393955891
C          103.09689137065000       -3.49066055839677        0.00044666023491
C          104.36456526033432       -2.85257125607515       -0.07210716596757
N          104.12711713795365       -1.50375700904079       -0.05744212390364
C          105.62206002064741       -3.46697408534109       -0.13248735325311
C          105.63147380557835       -4.95008171055543       -0.18447602843900
C          106.25378264459063       -5.68365391282954        0.82625772920310
C          106.26788655155647       -7.07540290408772        0.79696860092922
O          106.86112266944967       -7.80005422247321        1.78082393673532
C          105.65987839877675       -7.75301248922104       -0.26496778950696
O          105.66218885246579       -9.10959687952802       -0.32529765256639
C          105.04294097649307       -7.01117999151179       -1.27593963471557
O          104.47150701876893       -7.73604414754413       -2.28968817645120
C          105.01724675209422       -5.62383915265005       -1.24195578178776
C          106.84840926523196       -2.80024494925391       -0.14350950056703
C          108.13174228126304       -3.46664961507152       -0.27217684202271
C          109.07179225504512       -2.49967068530152       -0.22499912201250
N          107.02967940423765       -1.45361840454783       -0.04585544600353
C          108.36104315524956       -1.24519105454082       -0.07947250595935
C          109.02029819977403       -0.00272900300519        0.02079698694547
C          108.39638605559203        1.25741838261637        0.10784054578330
C          109.04835553983413        2.50981295342083        0.24442069209627
C          108.08754708025297        3.48383212452152        0.26895542957758
C          106.82047272303593        2.85343728828255        0.13836738724186
N          107.05765126982939        1.50691905246932        0.05743458328282
C          105.56349696766137        3.47078873051960        0.10812978302418
C          105.55219051596009        4.95405311454313        0.16168331700917
C          106.19247962369511        5.69910340778875       -0.82912521645144
C          106.17444097317028        7.08809695635804       -0.77853841760101
O          106.78648638925931        7.82068966158011       -1.74039062151696
C          105.52129520594129        7.73752516938432        0.27036480477700
O          105.52260659038686        9.10717463596318        0.29565713750526
C          104.88626167814486        6.99367687275998        1.26177812655391
O          104.27060936547751        7.70033755059133        2.26114381859954
C          104.89669516892299        5.60556686172542        1.21030704167731
C          104.33772451671611        2.80626627086274        0.03631059293449
C          103.05547337960107        3.47974087206273       -0.06420211711401
C          102.11525188267906        2.51209067926284       -0.08653240814615
C          102.82495659224153        1.25081550469528       -0.01340182369076
N          104.15595831584994        1.45635058629614        0.04565113431405
H          101.06744196345598       -2.65257725120917        0.09678243828124
H          102.94267969208124       -4.55695909180966        0.02920849551968
H          104.85055869425875       -0.79281313259623       -0.07917677767768
H          106.71745423404849       -5.16850134822389        1.65993405337973
H          107.24608097855237       -7.22438025979012        2.45456575158371
H          105.19422308174514       -9.37884275343965       -1.13215301727977
H          104.07771055170082       -7.15303387782361       -2.95155219892381
H          104.54459117695886       -5.07179250530997       -2.04586144907626
H          108.27283741587804       -4.52803991530506       -0.39678527428979
H          110.14356662513359       -2.59872839728024       -0.29041127885982
H          110.11589276790136        2.64010568796119        0.31896005481393
H          108.24168299643699        4.54496799385532        0.37663558015763
H          106.33458111259672        0.80005057369655       -0.02447907764029
H          106.68683456367542        5.20724244531162       -1.65691349593445
H          106.65908138567764        8.76168218956975       -1.53527510840526
H          105.02423649563923        9.39235428154878        1.07806391488608
H          103.84893991738520        7.10425910293469        2.89396198821575
H          104.41269710981712        5.03300074169219        1.99274492958485
H          102.91463000309024        4.54665349930639       -0.12629973964200
H          101.04425699277314        2.61568835030713       -0.15699198516588
C          115.62273242235946        0.01641020881145        0.03188170730600
C          116.24761910997137       -1.24648870181482        0.03125590684582
C          115.59629555167753       -2.50585183102847        0.06956310304031
C          116.55806463269749       -3.47847755452485        0.02177236513997
C          117.82492221351660       -2.83936754076750       -0.05513263032540
N          117.58674790751419       -1.49070692288727       -0.03335219895515
C          119.08201126920680       -3.45349449083058       -0.12700906396223
C          119.09032484311032       -4.93517825039999       -0.20461978439563
C          119.72604790278940       -5.68998802208061        0.78184919769043
C          119.74273352867532       -7.08072138208168        0.72058948641109
O          120.35056151368154       -7.82621691959969        1.67965609043916
C          119.12264026997315       -7.73569919313136       -0.34857422300574
O          119.12792976994875       -9.09047660515226       -0.44032179814015
C          118.49043919331817       -6.97275005913888       -1.33407531309391
O          117.90689091669384       -7.67560623545334       -2.35634769239439
C          118.46323097979811       -5.58672502234156       -1.26867316985248
C          120.30831390494554       -2.78640444602599       -0.13452807015700
C          121.59211653329662       -3.45022076325957       -0.27115803666354
C          122.53128942066724       -2.48285737481917       -0.21524812927266
N          120.48830192232808       -1.44053274557069       -0.02545189216903
C          121.81940914081052       -1.23039454517851       -0.05919284735813
C          122.47743208757041        0.01241209370741        0.04410733361397
C          121.85266963430949        1.27221517596489        0.12711433347019
C          122.50396443357393        2.52612060663281        0.25219984437087
C          121.54259563356969        3.49979178884169        0.26690266163619
C          120.27587128435935        2.86733699876326        0.14302879314452
N          120.51365096767529        1.52036605920617        0.07551929526085
C          119.01890974567684        3.48478279593085        0.10814536187492
C          119.01283572742572        4.96911852810226        0.13576622995704
C          119.64474126825648        5.69005550902895       -0.87805470089021
C          119.63749310805431        7.07976923989615       -0.85470357292435
O          120.24172465087265        7.78871801290938       -1.83891927937491
C          119.00434815637742        7.75413630036872        0.19068510602537
O          119.01756356828595        9.12398793027629        0.19014326735333
C          118.37763270276149        7.03434009699514        1.20486684060674
O          117.78270365935852        7.76520263755437        2.19943884506747
C          118.37618542522981        5.64526263702986        1.18006453589490
C          117.79285785315258        2.82023690262267        0.04937536451361
C          116.50950140157433        3.49226599436027       -0.04637165453524
C          115.56994989213985        2.52373025755794       -0.05913319252105
C          116.28116999326640        1.26317806893169        0.01452574554155
N          117.61206122909121        1.47005646068586        0.06691764951729
H          114.52868394757911       -2.64227268278827        0.13108017386593
H          116.40466811207695       -4.54493510980166        0.04872767650487
H          118.30955026176693       -0.77922471344118       -0.05773621879249
H          120.19890149646821       -5.19309138923786        1.62142093046577
H          120.74497869440964       -7.26521355720102        2.36025639272072
H          118.65069430715911       -9.34228790240268       -1.24739595039861
H          117.50178225463416       -7.07844781535621       -2.99850676366074
H          117.97979021148521       -5.01765148477270       -2.05409435460543
H          121.73473521594732       -4.51010473451492       -0.40613073872652
H          123.60306688807786       -2.58042224564284       -0.28252282583766
H          123.57147149283507        2.65764698396422        0.32505607090420
H          121.69590459029025        4.56211388788870        0.36359886501403
H          119.79107413714038        0.81246809398378       -0.00146150973695
H          120.12530279772818        5.17808443598225       -1.70176018230122
H          120.12481336160465        8.73449781992463       -1.65031542639656
H          118.53392198882713        9.42819293685677        0.97459404826177
H          117.36728035083893        7.18505642379582        2.85087457694949
H          117.89888062185247        5.09177965828523        1.98012744780087
H          116.36781211142613        4.55899329411567       -0.11036542107762
H          114.49839501757799        2.62586322116930       -0.12365554140468
C          129.07968762454470        0.00891886899993        0.02355826770937
C          129.70554053493990       -1.25296742189784       -0.00015550230616
C          129.05657565431730       -2.51387183401017        0.03564113335665
C          130.01846654518741       -3.48444594247471       -0.03948774970636
C          131.28313715914777       -2.84264469671625       -0.13319135699703
N          131.04354314655316       -1.49460689267632       -0.09086183638532
C          132.53920741255811       -3.45205181710145       -0.24371157467638
C          132.55266183872345       -4.93286080521473       -0.33294809528366
C          133.21966821761458       -5.68854423697983        0.63216416699300
C          133.23943337200700       -7.07894067290509        0.56637909852316
O          133.87594465328172       -7.82517874295965        1.50593690597367
C          132.59141075650012       -7.73278444938822       -0.48683766776124
O          132.59810616491265       -9.08726491093113       -0.58252241035790
C          131.92947599452543       -6.96900215824376       -1.45196152772272
O          131.32023790072182       -7.67092107074914       -2.45986058153964
C          131.89854319066654       -5.58325068586195       -1.38124583600644
C          133.76287832387908       -2.77937773654962       -0.27290993855495
C          135.04448618986376       -3.43511306448289       -0.46227610099924
C          135.98266463031317       -2.46743667572241       -0.39894662231441
N          133.94152834185439       -1.43780439644663       -0.12894547837575
C          135.27238452132576       -1.22283302424507       -0.18282909217680
C          135.92849669708932        0.01298398028393       -0.02249836688540
C          135.30424307836259        1.26543082951243        0.12758078455860
C          135.95523807748461        2.51341647155256        0.30686334532490
C          134.99422087054933        3.48579839322696        0.35711052994937
C          133.72763215536062        2.85924152194902        0.20228815081656
N          133.96503370636373        1.51622525199895        0.08295825297117
C          132.47112258130741        3.47803372805304        0.18031519395497
C          132.46477417041507        4.96038414895250        0.25648374347758
C          133.11072518096870        5.71426957062624       -0.72409469321136
C          133.10577001852317        7.10232318461941       -0.65324209634624
O          133.72449819070846        7.84340166070244       -1.60449629865795
C          132.46034058713263        7.74200368180487        0.40629086075418
O          132.47666957186323        9.11110587701559        0.45325188196840
C          131.81876441778240        6.98940249301438        1.38680186761732
O          131.21219784850095        7.68717898046016        2.39798545212689
C          131.81539358748702        5.60203996835545        1.31464314473250
C          131.24612689732382        2.81432817982505        0.09479483123359
C          129.96228768686129        3.48693999468687        0.01013071080388
C          129.02395068188633        2.51780158613641       -0.02596986999857
C          129.73654441278217        1.25666451534722        0.02264625237513
N          131.06706752986412        1.46404659599296        0.08015244547402
H          127.99036829000531       -2.65237282030869        0.11484572223256
H          129.86698075842247       -4.55137121446332       -0.02113802821739
H          131.76518913430880       -0.78207717325158       -0.11806795211432
H          133.71472086450299       -5.19234187496884        1.45926775748321
H          134.29094552370887       -7.26478135633127        2.17473039651293
H          132.10101675008758       -9.33821871635316       -1.37777430523742
H          130.89679768759873       -7.07318566973396       -3.08951217272376
H          131.39109565799103       -5.01364034347058       -2.15096719189813
H          135.18510198595061       -4.48984071364446       -0.63467750600494
H          137.05268716852234       -2.55922154639645       -0.49549195077808
H          137.02253494755806        2.64156233249322        0.38805618862291
H          135.14729047025114        4.54333477305197        0.49698714605581
H          133.24245120738536        0.81231206893973       -0.02441020936407
H          133.60101691762821        5.22970769789136       -1.55858075626674
H          133.60673985315555        8.78228035440623       -1.38457831751514
H          131.98422305892686        9.38904530197310        1.24196616292206
H          130.78772532796663        7.08586187786508        3.02390908086282
H          131.32712046863875        5.02262725720800        2.08931785178054
H          129.81966032541555        4.55466898591768       -0.03133397451701
H          127.95244819546004        2.62021712577390       -0.09082069581028
