80
 energy: -136.561707070909 gnorm: 0.000364727259 xtb: 6.5.1 (b24c23e)
C            3.05527938539649       -0.08493926302573       -0.00196010132286
C            3.68123582603478       -1.32337691663118       -0.06560144526504
C            3.06922015130225       -2.60806616829807       -0.13285851710221
C            4.06281448623992       -3.54504394889917       -0.18074258630680
C            5.31290132723969       -2.86271805053518       -0.14388307865592
N            5.03151954899911       -1.52883739718035       -0.07518626148952
C            6.58250063253489       -3.42777113129176       -0.17004056692974
C            7.80122721490497       -2.76552038814869       -0.13287090560101
C            9.08031884315342       -3.45232247827097       -0.16267611867253
C           10.02874029454921       -2.49418371803064       -0.11174895116339
N            7.99268639765147       -1.41987976342580       -0.06538637615557
C            9.32518605398369       -1.22546897471265       -0.05174007262880
C            9.97956780171427        0.02290976121589        0.00855283125480
C            9.32841270535077        1.26954869823763        0.06549985770023
C            9.93461050091576        2.55336563661470        0.12772055487086
C            8.93688580270339        3.48779507137574        0.17249785689392
C            7.69113141912284        2.80071623183357        0.13911701184657
N            7.98024318601206        1.46442557022629        0.07424102341311
C            6.42257918050506        3.36659642768303        0.16753729847554
C            5.20273757658327        2.70213459908600        0.13602227658963
C            3.91712373529404        3.38240954617524        0.17089776602729
C            2.97474169957261        2.41945405007221        0.12412909005272
C            3.68547876349066        1.15225875268305        0.06045403258047
N            5.02346182160106        1.36206270712360        0.06989657002433
H            1.97046185248396       -0.09356496903044       -0.00214719462107
H            2.00423808481825       -2.77774266296304       -0.14267722475679
H            3.95371857189560       -4.61655249604197       -0.23671109613776
H            5.72490005990518       -0.78934909287150       -0.03618061990275
H            6.61547449962275       -4.51121911823637       -0.22522285470477
H            9.20230572830253       -4.52284403017590       -0.21534462607084
H           11.10154367125265       -2.60438228379695       -0.11368175488043
H           10.99878443556521        2.72678599223900        0.13651547180205
H            9.04245771933149        4.55971568402012        0.22446661827679
H            7.28975430357563        0.72174241929062        0.03845377699776
H            6.39124076555395        4.45011817136466        0.22066697052846
H            3.78956032238805        4.45245379241367        0.22394217642574
H            1.90071828882100        2.52184363582065        0.13019627574085
C           26.07781978308295        0.08074680484809       -0.01075971026127
C           25.45266727136904        1.30110127298731       -0.23328284423635
C           26.06551732311145        2.56592941834437       -0.46595390889238
C           25.07253357244733        3.48937381015706       -0.63530037215134
C           23.82200212388543        2.81831427531185       -0.51080578541617
N           24.10251729292460        1.50440703403964       -0.26979855239847
C           22.55276896630906        3.37600779315802       -0.61018842443734
C           21.33360420869808        2.72507163848366       -0.48703673895849
C           20.05497915843795        3.40318796541481       -0.60503436053559
C           19.10591204748554        2.46050927056268       -0.42965474368314
N           21.14124050072070        1.39968383831274       -0.24552499359143
C           19.80861789311546        1.20973887340428       -0.20599803107671
C           19.15347822580381       -0.01994452711048        0.01518498288760
C           19.80388233974724       -1.24948853335530        0.23108790181088
C           19.19680254080510       -2.51444274954364        0.45660975514693
C           20.19388469986094       -3.43640818207772        0.61918282841354
C           21.44010942739244       -2.76018161053422        0.49774601874918
N           21.15190587866080       -1.44275743602774        0.26367018353918
C           22.70828341596467       -3.31888729621491        0.59690294788917
C           23.92856045492458       -2.66469225329249        0.48080982999626
C           25.21373073539732       -3.33589694065185        0.60164710519075
C           26.15673669146666       -2.38724739848153        0.43324673146605
C           25.44682110883454       -1.13795080103001        0.20905817968625
N           24.10870249282012       -1.34398245167134        0.24505398298423
H           27.16264182701753        0.08862898913089       -0.01170461856535
H           27.13061113306861        2.73227667241896       -0.49723045587454
H           25.18232691094040        4.54452315952773       -0.82963800799513
H           23.40865677140454        0.77658404756426       -0.13575129661892
H           22.52050712139779        4.44312868044907       -0.80564710953185
H           19.93370727502134        4.45791818458483       -0.79610843607212
H           18.03318739981085        2.57039853961362       -0.44520293665437
H           18.13250940504284       -2.68444181215340        0.48820241958763
H           20.08757960000322       -4.49292278014405        0.80714918764826
H           21.84290595268843       -0.71127439462700        0.13295361287021
H           22.73890311335292       -4.38693464789079        0.78704846113736
H           25.34060184494606       -4.39065974683401        0.78995237651929
H           27.23069253954420       -2.48874843200988        0.45224993886855
C           15.18076171757993       -0.00302575837048        0.02124393963749
C           13.95231707230210        0.01224276455624        0.01776606683373
C           12.60800312346685        0.02513231086207        0.01488780294939
C           11.38386974110951        0.03241281475461        0.01256187191790
C           16.52504867813534       -0.01806594721509        0.02205177160040
C           17.74914396152597       -0.02789935517011        0.02013432246794
