248
 energy: -451.020659450435 gnorm: 0.000754018894 xtb: 6.5.1 (b24c23e)
Co          46.91150685155338        0.03633279862445        0.04449332483917
C           43.54227146699334        0.04415692336602        0.17105008973245
C           44.19851357459395        1.25361298990856        0.08600065789821
C           43.53926629099578        2.52154748973242        0.00821036148122
C           44.50022143305868        3.46725695283941        0.13216770871306
C           45.74372011085524        2.77432420077874        0.30463985000425
N           45.55589279463506        1.41994608195592        0.20218419520966
C           46.93935212033027        3.38557642142968        0.66060151427535
C           46.95536179580768        4.84159836127508        0.92278731188460
C           46.14066716641130        5.39423292545604        1.91393291079319
C           46.15742497180356        6.75497022529257        2.16183273932606
C           46.98974183476887        7.59350694455601        1.41436879779416
C           47.00725212351048        8.99486299861919        1.66421696298717
N           47.02354191581669       10.12768580990330        1.86515144001385
C           47.80550663860902        7.04571415595982        0.41982712950478
C           47.78845492130394        5.68334077138339        0.18172802338098
C           48.11897054874965        2.66628766316898        0.78680529118905
C           49.36161291321853        3.22428113622461        1.22874410844805
C           50.30593297145268        2.27004989725155        1.04476953894151
N           48.29202308471944        1.35639631949027        0.40338533110160
C           49.63687609261023        1.13226108306249        0.49836493509020
C           50.30223364974574        0.01402385502280       -0.01169387392382
C           49.60665590852879       -1.08760187482098       -0.51824215120121
C           50.24167904359474       -2.21962509230182       -1.11456217181643
C           49.27572577545884       -3.15047530554869       -1.30629993231881
C           48.05592967716019       -2.58786986530241       -0.80958663245582
N           48.26151530318518       -1.29200955301848       -0.39374953626100
C           46.87507912308803       -3.29763435194719       -0.64877852839360
C           46.85615844736050       -4.74483983348966       -0.95566090381557
C           45.97563570787907       -5.25496555239782       -1.91280948851259
C           45.95589312432261       -6.60739319344135       -2.20219153669876
C           46.81697324153188       -7.48051401618056       -1.53072328580466
C           46.79671043112982       -8.87358189772928       -1.82312625908096
N           46.77968691191769       -9.99984312777775       -2.05847603709767
C           47.69778289867018       -6.97560139956102       -0.56957278949439
C           47.71659161201282       -5.62115291695061       -0.28979504069406
C           45.71017593962943       -2.68838767456719       -0.19853254527776
C           44.47978956819470       -3.38052824678342        0.05259905986547
C           43.53967703399307       -2.43504362549138        0.28790430056975
C           44.19816315382934       -1.16803314814323        0.18925261667226
N           45.54050562302436       -1.33714033496519       -0.04371465061147
H           42.45973330024015        0.04622982795841        0.21719323285964
H           42.47636332095521        2.65058898175372       -0.11968505035718
H           44.39016429396217        4.53941051829785        0.11476708362031
H           45.50387447633993        4.74579484804507        2.50502237630391
H           45.52727473384302        7.17563618746608        2.93666962652815
H           48.44950919666698        7.69313434649389       -0.16370828211637
H           48.41360755687640        5.26352046336541       -0.59822205310345
H           49.48404982173614        4.21807671728944        1.62754157645211
H           51.36387622173473        2.31980213935696        1.24598364216313
H           51.29295511932658       -2.28027159579444       -1.34557973936750
H           49.37011762493285       -4.13219275787674       -1.74103904621131
H           45.31497033688002       -4.57944096808392       -2.44437322034610
H           45.27447706747571       -6.99495469050124       -2.95044476965871
H           48.36366286640706       -7.65007155943657       -0.04412521987902
H           48.39165000397249       -5.23535732065415        0.46574138600438
H           44.36406137189500       -4.45221376478918        0.04551634274169
H           42.49028516081204       -2.56323140290730        0.50027229892488
Co          94.77046030411120        0.01117394105510        0.07754766212208
C           98.14075006476602        0.00884536035672        0.19468595107220
C           97.48468406655785       -1.20320726332379        0.17634838605519
C           98.14518654953889       -2.47281900073689        0.16605564002380
C           97.18477732485147       -3.41205921651312        0.33337381745396
C           95.93973324704433       -2.71305012623181        0.46628153607209
N           96.12681718269377       -1.36475596107946        0.29511486617791
C           94.74439249904526       -3.30775891774513        0.84667177254850
C           94.72807541217961       -4.75061790736614        1.17466298497918
C           95.53886505027282       -5.25733746800299        2.19317029154663
C           95.52449918116992       -6.60600179962697        2.50007593546081
C           94.69808725400118       -7.47864504745121        1.78585774655598
C           94.68444730069336       -8.86802594160610        2.09545124038753
N           94.67243238752812       -9.99140697102226        2.34471681728517
C           93.88486351743819       -6.97668792539367        0.76535580919242
C           93.89976043896611       -5.62593831228002        0.46804908556142
C           93.56446885060501       -2.58316762875824        0.93846182292392
C           92.32302545230436       -3.12057833398008        1.40781887629271
C           91.37874294973025       -2.17437683726984        1.18668932559809
N           93.39132874619614       -1.29197273354172        0.49753437325402
C           92.04590932504388       -1.06178205617447        0.58865685480543
C           91.37936815251639        0.03242692740703        0.03450785001626
C           92.07062143236649        1.10756632871597       -0.52700985598346
C           91.43144887517018        2.21019569021166       -1.17204946871811
C           92.39730268516347        3.12645206684482       -1.42376423783399
C           93.62175155581453        2.58654812869068       -0.91378179322521
N           93.41892015594139        1.31448915811964       -0.42958579682589
C           94.80603063522712        3.30100517890806       -0.80697622291251
C           94.82647965223073        4.72806492043934       -1.19805456281249
C           95.69502976852931        5.17537935162543       -2.19659620377311
C           95.71861850312088        6.50843482959963       -2.56481424103146
C           94.87354736396584        7.42520461321546       -1.93231831128133
C           94.89974830100320        8.79893699929464       -2.30464070646693
N           94.92508822733384        9.90995864935940       -2.60341677909531
C           94.00425090156439        6.98319199370148       -0.93054744130175
C           93.98154295841444        5.64748670119873       -0.57183281158933
C           95.97268975447766        2.71619364799596       -0.33230651417802
C           97.20493088691067        3.42020259685210       -0.12766986922970
C           98.14439143326678        2.48964585754690        0.16240306359404
C           97.48465755371038        1.21960753788153        0.14155860942580
N           96.14195206257374        1.37567024637225       -0.09880108359514
H           99.22320434079255        0.00961183327575        0.24162971681693
H           99.20872251714923       -2.60687508468718        0.04890820801142
H           97.29603080123970       -4.48359500392884        0.37043037195383
H           96.17142026673561       -4.58209826479577        2.75823999044188
H           96.15216593885272       -6.99085062638301        3.29529256028605
H           93.24490102270069       -7.65062126926466        0.20796962271503
H           93.27667548263970       -5.24218791231793       -0.33189157171764
H           92.20163319688325       -4.09619113248233        1.84957562213622
H           90.32154196254635       -2.21423450022099        1.39396241898476
H           90.37748751971931        2.26247273403380       -1.39273672825369
H           92.29992315898690        4.08503423573811       -1.90678383868436
H           96.34380606734659        4.46543205899489       -2.69703936324024
H           96.39076149429006        6.84695536396971       -3.34459266384519
H           93.35063465586180        7.69182690438582       -0.43552554113122
H           93.31573924708638        5.31111840832709        0.21489198625324
H           97.32162952519214        4.48937451826645       -0.20014812043155
H           99.19445152053447        2.62904412737705        0.36419882064515
C           55.50089905287203       -0.01480517502511       -0.03898391083599
C           54.27144961842230       -0.01294655435252       -0.03648436144050
C           52.92870180394378       -0.00539990767566       -0.03058670104968
C           51.70406629322258        0.00160406383945       -0.02469984463967
C           56.84337715073965       -0.01485967023714       -0.04291582292082
C           58.06837724739709       -0.01268198734520       -0.04555451457772
C           71.45204322755647        0.01469783292403        0.03918725263213
C           70.22245641866527        0.01375222601265        0.03523009487087
C           68.88029346971982        0.00902250523692        0.02678347568137
C           67.65527009549474        0.01059551658872        0.01469238939601
C           72.79430654641361        0.01664151403746        0.03966587173580
C           74.01926677060607        0.02224927068726        0.03652588940913
C           87.40610717349549        0.05838587129071        0.01858873697998
C           86.17800424054099        0.05985103052115        0.01349367365846
C           84.83323826371922        0.06116882379054        0.00728487892759
C           83.60947716036058        0.06048757546977        0.00149809609316
C           88.75119561095003        0.05207362228371        0.02507332283643
C           89.97452428232432        0.04509153318923        0.02910492864353
Co          62.86224051919198        0.01425885086222       -0.05591415608601
C           59.46903410900988       -0.00725898995401       -0.04507862802569
C           60.15708261305048       -1.21485138093313       -0.20241947257450
C           59.51403816569709       -2.48389003832798       -0.32737238466027
C           60.47455229208688       -3.37212106250675       -0.68289489187153
C           61.69837336650293       -2.63643090795695       -0.78444842211121
N           61.50203565076163       -1.32665045348373       -0.41440147425427
C           62.87863906849910       -3.14407278931567       -1.31167006769395
C           62.88530603814618       -4.51370672316541       -1.86985297665418
C           62.02017571005465       -4.85897669426608       -2.91107279501366
C           62.02734082111672       -6.13784803501043       -3.43792623741893
C           62.89987542001607       -7.10236854827942       -2.92514280404722
C           62.90800107718413       -8.42070861531717       -3.46249932576186
N           62.91614088525117       -9.48676070773135       -3.89554239257884
C           63.76497022776780       -6.76299006866780       -1.88063384419349
C           63.75764212346777       -5.48029029179381       -1.36327306152315
C           64.05375443083663       -2.40450198147011       -1.32783290483711
C           65.28558640606465       -2.85125214766101       -1.90422826343657
C           66.23787147338199       -1.96350675869083       -1.52555035639657
N           64.23835860960517       -1.21189913628102       -0.66848513441993
C           65.58131251663453       -0.97346924313159       -0.73304670988056
C           66.25482582706196        0.00955078551544       -0.00008209963274
C           65.56386837952238        0.99362472429067        0.71443183885677
C           66.20316987115798        1.99287989940293        1.50983150039094
C           65.24236228467187        2.88263265525375        1.86042890983318
C           64.02238179697176        2.42687259023238        1.26587475669241
N           64.22059753242128        1.22515016681750        0.62697223440364
C           62.84560768875992        3.16260084704721        1.22470862883978
C           62.83946613737701        4.53742012194742        1.77009796274058
C           61.95923306041605        4.88820880664968        2.79671336395607
C           61.95371166778997        6.17183122129123        3.31182914668722
C           62.82853446971345        7.13563521644825        2.80155345630661
C           62.82265072548886        8.45880533105936        3.32694041856277
N           62.81741033260040        9.52788146968403        3.75241816673504
C           63.70887115796631        6.79065259827854        1.77173741271306
C           63.71417811223213        5.50319757670299        1.26618055200790
C           61.67392716258030        2.64495871630401        0.68798725163551
C           60.44660575145609        3.37171358929668        0.56804087344926
C           59.49418377657363        2.47309868355341        0.21597252038308
C           60.14625227546579        1.20720202945667        0.10952669619193
N           61.48756809819216        1.32893332853047        0.33589264671307
H           58.46142331112667       -2.65530963212637       -0.17001722023067
H           60.37312640806741       -4.42963812394411       -0.86440922717604
H           61.35133797776506       -4.11019180418860       -3.32011925686327
H           61.35825832353245       -6.39641680357746       -4.25023312679098
H           64.43979686769794       -7.50919881024910       -1.47796312140939
H           64.42080999368939       -5.22445400914554       -0.54468104636694
H           65.39784178486980       -3.73132784098381       -2.51618615358135
H           67.29255729664563       -1.96909867450922       -1.74865774774480
H           67.25357805745644        2.00342767229476        1.75208745237824
H           65.34128963214518        3.77025804050248        2.46369992730148
H           61.28851950078016        4.14006925495311        3.20384111520273
H           61.27288640566271        6.43470992530143        4.11291264591444
H           64.38558566967285        7.53625288608999        1.37110344023530
H           64.38941396892442        5.24288359142617        0.45893981521080
H           60.33738367707945        4.43086925651097        0.73499942961431
H           58.44194914154522        2.63636930428958        0.04774659232837
Co          78.81308139163816        0.04558494887715        0.01292172596882
C           75.42004785886809        0.03013620602218        0.02780753702559
C           76.10793888316806       -1.17415239112481       -0.15213803582216
C           75.46582902642024       -2.44348727576515       -0.28012438506594
C           76.42401557212243       -3.32699349581026       -0.65283919299595
C           77.64564770860733       -2.58844229135005       -0.76172483316519
N           77.44968770921314       -1.28052417939801       -0.38361643735467
C           78.82135468246418       -3.08930837579772       -1.30328393109575
C           78.82485413288511       -4.45568697515257       -1.86983111362838
C           77.95018160052747       -4.79521902570363       -2.90495633774476
C           77.95051942814096       -6.07179980845020       -3.43737835110964
C           78.82595971302455       -7.03988208668240       -2.93642154866899
C           78.82529315865254       -8.35630472332656       -3.47843746495290
N           78.82360004005039       -9.42074726499201       -3.91551886535572
C           79.70135595708295       -6.70602414402384       -1.89870832643202
C           79.70056133615284       -5.42559180842661       -1.37563994821637
C           79.99504355697282       -2.34671695810235       -1.32373762736807
C           81.22251832159472       -2.78984641976487       -1.91218631109764
C           82.17727908860726       -1.90396665742607       -1.53630104037522
N           80.18248558252965       -1.15503935674805       -0.66434502806243
C           81.52689530249263       -0.91767883770202       -0.73389819382217
C           82.20603850167399        0.06000965382088       -0.00197492559338
C           81.52260815197077        1.03945766332154        0.72347249099722
C           82.16854964245886        2.03820125693627        1.51388368847525
C           81.21095735152950        2.92806740465177        1.87323808141097
C           79.98545268543786        2.47175129295896        1.29120187253274
N           80.17810709300964        1.27424110652865        0.64516888642655
C           78.80555301805575        3.20487616348885        1.26939660844168
C           78.80612050012849        4.58032507296909        1.81373226446799
C           77.94678851288228        4.93079222863315        2.85790062722242
C           77.94651793785992        6.21631677416714        3.36845788450137
C           78.80576829512091        7.18213584947713        2.83611092023404
C           78.80427703900465        8.50742891020228        3.35607564254273
N           78.80094697269884        9.57938486290538        3.77447159498638
C           79.66633195686046        6.83698243211958        1.78970940050235
C           79.66658637181244        5.54774250940001        1.28883234791667
C           77.62753984944909        2.68401591464526        0.75329955574606
C           76.39424861670058        3.40573454080161        0.66226751098230
C           75.43976170924911        2.50557392935442        0.32199608442507
C           76.09584194073874        1.24346855290931        0.19200499498344
N           77.44113496355084        1.37000863252056        0.39017967633361
H           74.41549798556632       -2.61823461031574       -0.11143481718340
H           76.32257487184118       -4.38353865476023       -0.84010912133516
H           77.27844243319481       -4.04383839481259       -3.30440009824694
H           77.27348617717590       -6.32587262276541       -4.24450976355879
H           80.37858355020528       -7.45503163962866       -1.50536157999811
H           80.37145093325083       -5.17445551879348       -0.56189251729776
H           81.33010752241555       -3.66741524996575       -2.52854206065605
H           83.23038982744147       -1.90849414372368       -1.76670725727861
H           83.22107284348296        2.04887875243505        1.74676928030326
H           81.31499682920007        3.81532737231512        2.47621658409224
H           77.28808633348909        4.18133605894316        3.28189651735783
H           77.28165080344169        6.47919537813376        4.18284632662497
H           80.33132577138628        7.58400453370341        1.37245381152074
H           80.32636198944513        5.28690683759343        0.46907796487574
H           76.28295856193506        4.46276918168922        0.84085858407210
H           74.38361837661589        2.66467629797265        0.17562381073469
