197
 energy: -390.192628689866 gnorm: 0.000399797563 xtb: 6.5.1 (b24c23e)
Fe          30.74737280938738        0.00930217390396       -0.01151298628714
C           27.35712074218867        0.04576581566807       -0.03651855502252
C           28.01323643818189        1.25647172511144       -0.11532640321932
C           27.33809304582271        2.51649776570528       -0.19570500856617
C           28.29724812067595        3.47131685408054       -0.18315006881126
C           29.55823387526893        2.79214613769180       -0.09907238168796
N           29.37097838051929        1.43657389342458       -0.07165138147617
C           30.77981850793084        3.44327792050536        0.03541721778269
C           30.79103251309228        4.92756592777649        0.06116915084949
C           30.41246111826547        5.65045445396490       -1.06958796617040
C           30.42802682580253        7.04033145681941       -1.04424317252865
O           30.07122020452479        7.75415936308619       -2.13948275152199
C           30.81349224891189        7.71034205467507        0.11813603356040
O           30.81499429561577        9.08048769865371        0.11485072166818
C           31.18572256027067        6.98708255632464        1.24842669312297
O           31.54645506765254        7.71409238205097        2.35223997200309
C           31.18072305257360        5.59789535307056        1.22335423678121
C           31.98540364326485        2.76860928997436        0.16115834820458
C           33.25462023392992        3.42150634893541        0.28855172165995
C           34.19553134178693        2.44747989187205        0.30924200955933
N           32.15468738008369        1.40483194701568        0.10660606440113
C           33.50051027616807        1.20493215332197        0.18205389825446
C           34.15785827571382       -0.02714299943238        0.07307507718230
C           33.48049850321492       -1.24329620017487       -0.08036920062486
C           34.15320593550700       -2.49373088461569       -0.24504672572898
C           33.19171748956425       -3.44538199730199       -0.30983889604064
C           31.93400534381644       -2.77300504191828       -0.16906479718580
N           32.12889076605587       -1.41563764548220       -0.06156554515301
C           30.70995028621316       -3.42411590455018       -0.12216919741150
C           30.68903932902306       -4.90582997088650       -0.18401571140577
C           31.31366917495107       -5.65950739258613        0.80982357747780
C           31.28852762623726       -7.04801011028781        0.75054260446066
O           31.88479192052592       -7.79041086890278        1.71485467565231
C           30.64522456558714       -7.68720155397771       -0.31070176236203
O           30.64095427683632       -9.05675999885465       -0.34557275135744
C           30.02536379369570       -6.93409327113389       -1.30479748741520
O           29.41854920517819       -7.63183376736658       -2.31582576342221
C           30.03987054655872       -5.54639223164929       -1.24306499833648
C           29.49837938815071       -2.74761294915867       -0.01705781936173
C           28.22587916304262       -3.39957255976528        0.09896972739448
C           27.28699535221385       -2.42440355882426        0.12501006529950
C           27.98729211927947       -1.17936436965507        0.03299995919475
N           29.34038278191044       -1.38855423981761       -0.02564150817741
H           26.27290592156922        0.05762134231566       -0.03120642253778
H           26.26724862325143        2.63459614084625       -0.24489581314414
H           28.17431435945228        4.54168746732679       -0.21331294322013
H           30.12291499867836        5.14023625826781       -1.97909952528446
H           30.14895368419879        8.69888935659332       -1.92685312092123
H           31.10462390076595        9.38113412649427        0.99096366168995
H           31.78620543744977        7.13134042499898        3.08467981350409
H           31.46039591579094        5.04041504915643        2.10950181061794
H           33.39891742990462        4.48836426375210        0.33975651832161
H           35.26612846961678        2.54677405449382        0.38829962263037
H           35.22308970264502       -2.61155097212257       -0.30594254838827
H           33.31326738154564       -4.50765341707629       -0.44470214088917
H           31.80374956616670       -5.17407077444417        1.64382960288531
H           31.75938004247734       -8.72919844781684        1.49885903578663
H           30.15606747559794       -9.33403174242466       -1.13920994608018
H           29.02438377058060       -7.02994741175561       -2.96074132650211
H           29.56616513080739       -4.96611138972600       -2.02613672227761
H           28.08220654050434       -4.46610976355149        0.16103996888085
H           26.21539266997398       -2.51969236540431        0.20072285026717
Fe          62.71007446253812       -0.04678580875482        0.01640499968756
C           66.10041853495484       -0.08288946109478       -0.01014738628376
C           65.44375576091437       -1.27744312866025       -0.22074939400007
C           66.11857821756740       -2.52137478666927       -0.43768526862792
C           65.15867704209829       -3.47012494807000       -0.53928175718415
C           63.89769040610738       -2.80295977387831       -0.38717865435511
N           64.08568944803206       -1.45961619272168       -0.20444396779269
C           62.67465481845420       -3.46351807055296       -0.33824256429944
C           62.66189405706177       -4.94031583287035       -0.48843136127283
C           63.05036236823970       -5.52496825837242       -1.69336196302760
C           63.03224496468884       -6.90795994430555       -1.83344281644298
O           63.39848782747936       -7.48762105242750       -3.00226371881984
C           62.63431766664130       -7.71020856281864       -0.76258603788884
O           62.63034866003326       -9.07024938102815       -0.92860495079963
C           62.25252062063674       -7.12522883765662        0.44208208476230
O           61.87987085870002       -7.97713226318863        1.44837251915791
C           62.26015078167131       -5.74294201409053        0.58227270701772
C           61.46900915270691       -2.80668767906649       -0.13959442251969
C           60.19881048504564       -3.46851178047152       -0.09492455358121
C           59.25916502590361       -2.50317170679645        0.04498012304036
N           61.30139380057478       -1.44611498888711       -0.02836018327902
C           59.95588207980100       -1.25539321768523        0.07148474312014
C           59.29970828605488       -0.01866549752815        0.11674313395979
C           59.97756644185544        1.20686858205972        0.10761205891523
C           59.30467783432005        2.46792440183921        0.09566459357801
C           60.26653853461288        3.42062869648591        0.13217965272028
C           61.52475370036939        2.73644237586606        0.18261652660185
N           61.32937954825173        1.37564448223717        0.13540243774873
C           62.74986087030113        3.37825947021104        0.28991200280912
C           62.77156860074184        4.85768148012967        0.39290349469058
C           62.15804527758964        5.49595774157905        1.47092388205496
C           62.18291303337902        6.88250010729757        1.56572255647981
O           61.59725912234957        7.51260622792792        2.61270896088984
C           62.81483706840350        7.63600394593050        0.57492103484379
O           62.81888435628437        9.00078456258188        0.69208036978914
C           63.42378051364602        6.99824484152973       -0.50313062554422
O           64.01974205428714        7.80431061234340       -1.43699606359716
C           63.40970945235912        5.61220328631293       -0.59541250346099
C           63.96161419655426        2.69414628536586        0.30995157310809
C           65.23511086217020        3.32944902910174        0.48956371280341
C           66.17309999277556        2.35637699492681        0.40952229660020
C           65.47130213544337        1.12860932305179        0.18809256438628
N           64.11827288704617        1.34382655484827        0.15490031644670
H           67.18462110457224       -0.09626684231739       -0.00438200988928
H           67.18962928725348       -2.63463148746634       -0.49329071763886
H           65.28103302575990       -4.53042596119619       -0.68929362276343
H           63.34932529302121       -4.91120378091876       -2.53317159216394
H           63.31609891190064       -8.45064791599965       -2.90457565732577
H           62.33069813889696       -9.47187142380640       -0.09749747650099
H           61.63296520646114       -7.48457998618233        2.24207970851852
H           61.97306438790913       -5.29396170410800        1.52580928619062
H           60.05292492259603       -4.53331832635058       -0.17550154406609
H           58.18840633317026       -2.60997930495211        0.11067171103327
H           58.23442796641903        2.59200355899388        0.05847437765275
H           60.14482520260767        4.49133498093139        0.12190457417794
H           61.67683919612481        4.92062159588177        2.25119682743479
H           61.71855009978592        8.46987323920201        2.50008315008757
H           63.29340434050375        9.36539045575743       -0.07195759460311
H           64.40507619573278        7.27831761357515       -2.15000966830963
H           63.87476155055887        5.12272472727042       -1.44303157915834
H           65.37992979844958        4.38334498482549        0.66366902250819
H           67.24501174344788        2.44236085788177        0.49165361111854
C           39.35477923984035       -0.05131878796305        0.13802095043897
C           38.12387467756345       -0.05230015922895        0.13580458249558
C           36.78351497633147       -0.04673836410333        0.12189439644095
C           35.55755440078716       -0.04051675887398        0.10107054672343
C           40.69493509236700       -0.04724440724026        0.13209727807966
C           41.92129396589248       -0.04100800378636        0.11765852317506
C           55.33406490784148        0.00196239782071        0.18911174038440
C           54.10310404465545       -0.00004909468219        0.19130476243674
C           52.76309382394490       -0.00020593630044        0.18171964259238
C           51.53676900119471       -0.00442073491228        0.16124100314971
C           56.67427293171463       -0.00312350289497        0.17380189839692
C           57.90026790138332       -0.00770807359901        0.15112498239579
Fe          46.72947435978006       -0.01571114138481        0.04767143700923
C           43.31953323555641       -0.03306353219196        0.09142404426794
C           43.99031909351275        1.17071897430986        0.34895656839515
C           43.32078051754609        2.39149418477629        0.66734938417643
C           44.26974483561908        3.36015310215560        0.68516819634010
C           45.51411762598408        2.72441417700789        0.37326417803289
N           45.33159887734438        1.37287853104449        0.21526426870131
C           46.71635263404423        3.40241782282803        0.20033523001394
C           46.70417769692185        4.88200685075648        0.25161977062949
C           47.46609230140929        5.56269354014146        1.20255363521896
C           47.45670912218422        6.95313892502879        1.26574141481562
O           48.18193197305231        7.62697593748894        2.19521383330677
C           46.68591577447647        7.68381998934741        0.35488247272819
O           46.66261314816720        9.04043156800411        0.38532921973054
C           45.93025381015023        6.99483822606628       -0.59831738639702
O           45.20286569777111        7.77068285828890       -1.46281524815508
C           45.92584276184199        5.60849099524260       -0.65228839564027
C           47.92755001712777        2.75160522647559       -0.00456505302030
C           49.17710102478782        3.42004670783532       -0.21066640715349
C           50.13689506897231        2.46214243383458       -0.21111709120610
N           48.11962020164980        1.39234932657630        0.05420247130368
C           49.46759840477081        1.21397732350490       -0.02655183799285
C           50.13883239185609       -0.00792370216044        0.12591933073249
C           49.46623374553696       -1.23434683799125        0.21570821511307
C           50.13357749216013       -2.48809024490567        0.37115536208057
C           49.18540017557892       -3.44915803216420        0.24780261938485
C           47.94329492362450       -2.77551542905098        0.01507378668565
N           48.12622057815801       -1.41504962922691        0.04465510391180
C           46.74407366794354       -3.42182781500927       -0.26177274505861
C           46.75604336440074       -4.89665786495982       -0.41175581396437
C           47.52670300359559       -5.48620677198696       -1.41485347111930
C           47.52618014259007       -6.86746056503476       -1.56764991258508
O           48.25215039223556       -7.45132036242462       -2.54942964133058
C           46.76413217602642       -7.66136430073531       -0.70737301662878
O           46.79725642997581       -9.03430155686044       -0.89350119876508
C           46.02744693471116       -7.07606131775564        0.32055461679754
O           45.30954310994588       -7.84842438964341        1.18666014204348
C           46.00667727700748       -5.69236093914881        0.45525696243352
C           45.53461214961252       -2.74956395786665       -0.38948540882581
C           44.28705356000498       -3.38591258016672       -0.68911129647992
C           43.32626095399702       -2.43701203795367       -0.56889933364509
C           43.99296141417403       -1.22350425091807       -0.21702423549214
N           45.34075744433989       -1.41030004604491       -0.15203859415119
H           42.26159727484473        2.48270345263234        0.84651507059378
H           44.14675672855297        4.40964190187938        0.89754478024229
H           48.05600444672994        5.00581218588406        1.92174548432572
H           48.66992872585733        7.01930872475605        2.76637209508197
H           46.07470041857715        9.35074193793962       -0.32232237480387
H           44.71436765348037        7.22287169457445       -2.09093599047823
H           45.34112460552301        5.09745376167450       -1.40801871330168
H           49.29721782808888        4.48326101645743       -0.33977993844817
H           51.20248507623751        2.57655030207687       -0.32805439752398
H           51.19135073023039       -2.60327616971533        0.54457040831971
H           49.30653044079415       -4.51811187133003        0.31227468750357
H           48.10537607626159       -4.87745080902239       -2.09739107810006
H           48.12268033727860       -8.41304904708283       -2.49562670095656
H           45.92422354215622       -9.42128719754525       -0.74682497241398
H           45.63005011832416       -8.76102676345008        1.17162195929725
H           45.43041066325754       -5.24834302879314        1.25653012381845
H           44.16961460625816       -4.42385336263259       -0.95438446910135
H           42.26134919456752       -2.53548863971975       -0.70490170626890
