112
 energy: -200.783911332781 gnorm: 0.000765478387 xtb: 6.5.1 (b24c23e)
Cu          12.36030673013548       -0.04504677353241        0.00061646433892
C            8.95423044270187       -0.06808221656700       -0.01666818610415
C            9.58510637573815       -1.29806868146273        0.09411253060091
C            8.90635957633457       -2.55520599172050        0.22925065528646
C            9.86238066872782       -3.51130776142444        0.33263388693132
C           11.13500189116925       -2.84673270313642        0.25383550510097
N           10.93527244212192       -1.50372161667185        0.11347696827766
C           12.37805045131190       -3.47679003221835        0.34807306618114
C           12.38579235321983       -4.95182529562572        0.50482583672178
C           12.89744180574457       -5.55403997325626        1.65361743358983
C           12.87952570732301       -6.93594401814444        1.75761480633972
N           12.39780559881655       -7.72784601063748        0.80487366194507
C           11.91066356183960       -7.16185171292802       -0.29471840267995
C           11.88056644731847       -5.78974235430939       -0.48844053312519
C           13.61345488673995       -2.82786615649582        0.31096314309785
C           14.88909438152651       -3.48428087206005        0.36807636184653
C           15.83808374219241       -2.51828622251283        0.27913559478426
N           13.80622403711661       -1.47820135236609        0.17853002528881
C           15.15043459419675       -1.26748672793499        0.15960660450006
C           15.78951717166559       -0.02280265514685        0.02383371944489
C           15.13527473915886        1.21333873684476       -0.11838992474961
C           15.80803079920781        2.46618365212599       -0.28882895347317
C           14.84791960130234        3.41950399679692       -0.39358735308534
C           13.58034731880371        2.75524544434733       -0.27853686848443
N           13.78879387665126        1.41043243431339       -0.12234472908831
C           12.33683015647264        3.38724659566980       -0.34220373323599
C           12.32613160336621        4.86250414425013       -0.49071379088714
C           11.75399519034486        5.47368356660683       -1.60609084151571
C           11.76872133907011        6.85613935602892       -1.70192071198190
N           12.30355332476651        7.64123892807578       -0.77213890650357
C           12.84920431168050        7.06712994917525        0.29520519076497
C           12.88618806623074        5.69380885379010        0.47866234600345
C           11.10124502947756        2.73828414954231       -0.27744188988159
C            9.82071331344732        3.39219538078475       -0.29332201347747
C            8.87674103800210        2.42273649329126       -0.20509050577409
C            9.57085365727288        1.16931342509781       -0.12518364347485
N           10.91821913588224        1.39028849967171       -0.16399219589572
H            7.86911434019780       -0.07330475972867       -0.00820364970655
H            7.83470470544338       -2.67637843394804        0.24796275508618
H            9.72487674602116       -4.57270629193175        0.46253301404709
H           13.28994502370864       -4.94736945550776        2.46104720713826
H           13.26804844183493       -7.42755444625412        2.64473434515883
H           11.52740122535654       -7.83502561157745       -1.05596686650123
H           11.48388607905230       -5.37323311550323       -1.40671038940540
H           15.03600583975422       -4.54885805862638        0.45246801027486
H           16.91020055415802       -2.63343349221745        0.28673884666065
H           16.87846479563387        2.58944775606629       -0.32854624521679
H           14.98255065028194        4.47773401474440       -0.54815945720366
H           11.31787723058757        4.87336665460567       -2.39578040342867
H           11.33264051943131        7.35410975965603       -2.56319366289509
H           13.27615970377168        7.73441681706089        1.03825496006219
H           13.33069207444496        5.27142275775924        1.37202064292178
H            9.66984739839429        4.45811410224043       -0.35119647926746
H            7.80392322399485        2.53312734050001       -0.18755872644344
Cu          25.82569775383373        0.04430501203291       -0.01128017992807
C           29.23171744184748        0.06056867019071       -0.03420238061185
C           28.60101937296720        1.27092262372625       -0.27994545440024
C           29.28007541861034        2.51417763002611       -0.50928150301831
C           28.32430927766431        3.45920181576181       -0.68873112135727
C           27.05151407270112        2.79947330801152       -0.57801166067100
N           27.25091790595788        1.47307342440185       -0.32452616112773
C           25.80846358267314        3.42889585139747       -0.67687668521937
C           25.80092796530105        4.88551256466377       -0.95662964829142
C           25.27912313951778        5.79546408362934       -0.03800023873410
C           25.29778436192415        7.14776594756027       -0.34082019686226
N           25.78952747426117        7.62867542366568       -1.47818493557299
C           26.28632622288032        6.76774979945530       -2.36056313743529
C           26.31654737960826        5.39875017112710       -2.14604862602361
C           24.57281035324042        2.79627271207088       -0.52887757298432
C           23.29725502638594        3.43947372401487       -0.67255776433722
C           22.34816450055037        2.48957288796658       -0.47616556674818
N           24.37991607640314        1.46719472011364       -0.25957711693195
C           23.03566555507642        1.25954297395809       -0.21955407869776
C           22.39641942112646        0.03024543208530        0.01773547202930
C           23.05045152977384       -1.19299910952601        0.24622133800191
C           22.37738683837358       -2.43998268959584        0.45465927410303
C           23.33738563106519       -3.38280791041119        0.63090757580270
C           24.60519301326980       -2.71521234972157        0.54015249139038
N           24.39695177986522       -1.38355900234761        0.29583199690111
C           25.84853838427613       -3.33991645737385        0.65619163448409
C           25.85866828017811       -4.79468085098360        0.94331017349064
C           26.41941573186432       -5.70567589447118        0.04865742303555
C           26.40451697171222       -7.05603641769175        0.36008085553640
N           25.88011836702132       -7.53473253860574        1.48377790177669
C           25.34534692135323       -6.67316484922910        2.34301553808323
C           25.30928779904125       -5.30593330914293        2.11852745059234
C           27.08426472656710       -2.70181282417863        0.52331704802331
C           28.36481783965664       -3.33445067797250        0.68906516147848
C           29.30898053016778       -2.38109635002605        0.49311331963011
C           28.61497408414172       -1.15631424233989        0.21476386890371
N           27.26753614367714       -1.37801045557146        0.24501325179561
H           30.31683182274661        0.06794414429045       -0.02738275577218
H           30.35173083399253        2.63611567417266       -0.52223044748012
H           28.46218754574979        4.51319431450143       -0.86887240045254
H           24.87794343961249        5.44967515358474        0.90736409316533
H           24.90037237108480        7.87578554466678        0.36070683333322
H           26.67834533660788        7.19069936426934       -3.28101592886699
H           26.72147934802283        4.73355931176950       -2.89953352281841
H           23.15046031320484        4.48143621395454       -0.90658089035086
H           21.27607431685907        2.60107837214584       -0.50668999846835
H           21.30683980389516       -2.56856135178977        0.45733449640211
H           23.20253768064494       -4.43956472656947        0.79511751391013
H           26.84681227879227       -5.36261296734459       -0.88614031694192
H           26.83153377568736       -7.78454534774162       -0.32328236623425
H           24.92683872578988       -7.09387141602387        3.25271602818942
H           24.87377859593740       -4.64034786314116        2.85437116462724
H           28.51558223599991       -4.37284621524504        0.93657327438944
H           30.38188170837130       -2.48305103564597        0.53682677290471
C           18.41789232074805       -0.00196761125457        0.02019860752451
C           17.19625560241968       -0.01432630230656        0.02065885097394
C           19.76817071411291        0.00995238369680        0.01958677796895
C           20.98964643601360        0.02137949775271        0.01861894898327
