189
 energy: -335.390945818898 gnorm: 0.000793560103 xtb: 6.5.1 (b24c23e)
Zn          27.14126499700158       -0.14448541733215       -0.11506114691541
C           23.72122829969078       -0.10002459144932       -0.09279378762125
C           24.35723417687058        0.77187610601021        0.78232784914541
C           23.69464162361008        1.67511899208514        1.68100348345025
C           24.66342949335391        2.34510873538678        2.35567247500555
C           25.92536346099683        1.85658315534458        1.87466606508801
N           25.71070954837436        0.90767585795068        0.92607601569201
C           27.18644037837350        2.29657868591647        2.31943498403670
C           27.20179672563636        3.29964036746250        3.31394098572558
C           27.20705318863510        4.16370338790030        4.16621579213427
C           27.20975966817219        5.17143022805103        5.15724065017749
C           28.40673927159293        5.69511147751307        5.66007155290737
C           28.35246534510968        6.68193213797370        6.62808053042383
N           27.21081816340640        7.16492025018103        7.11211356978906
C           26.06853826061655        6.67207557517156        6.63957632992771
C           26.01330464438275        5.68498254015208        5.67204709306474
C           28.42933268496581        1.82649744805204        1.85888384374875
C           29.70444667677456        2.28625931618034        2.32625709799085
C           30.65156529444698        1.59330295241222        1.64186335774921
N           28.61651570371945        0.86902524604811        0.90517903622464
C           29.96048662095132        0.70670082999872        0.75242052105141
C           30.58566869302363       -0.18890851918873       -0.13795342341500
C           29.92578671725026       -1.06742419731805       -1.02049665419603
C           30.58187460615711       -1.97213598620968       -1.91819894039483
C           29.60820353062794       -2.64210164179440       -2.58803768258756
C           28.35173314660791       -2.14985490696229       -2.10365232028827
N           28.57619883873519       -1.19557348539390       -1.15479528625741
C           27.09115141374862       -2.59084406604814       -2.54433784549356
C           27.06712887828688       -3.60095888063063       -3.53150700411482
C           27.03814344672574       -4.47364265919056       -4.37446889993675
C           26.99962038874741       -5.49370660977063       -5.35203913314558
C           28.17485145929303       -6.04356749988589       -5.87768132716913
C           28.08013357922612       -7.04274557693674       -6.82977068069583
N           26.91894321542647       -7.51405389787792       -7.27745919460843
C           25.79711214642981       -6.99624022448972       -6.78314076428902
C           25.78236463763881       -5.99484272547660       -5.82894157745921
C           25.84791081677353       -2.11704946815572       -2.08434831888446
C           24.56754326617444       -2.57382314187180       -2.54744696962013
C           23.62541616187557       -1.87655572817617       -1.86274070857890
C           24.32297005876244       -0.98880175213119       -0.97515343135725
N           25.67045561399728       -1.16015976711962       -1.13607617603565
H           22.63562688549593       -0.08591807986791       -0.08582891985023
H           22.62465131836469        1.77498932231850        1.77499190113426
H           24.54511189066737        3.10371794359920        3.11324556663805
H           29.35911434911539        5.33097197994869        5.29401697098286
H           29.26582970224534        7.10609542625104        7.03531818659047
H           25.15561004582934        7.08819745772947        7.05603078850460
H           25.06053575748460        5.31247880632210        5.31541465963391
H           29.84823221317413        3.04237994931656        3.08170923338752
H           31.72393345735677        1.67006609135136        1.72582765097264
H           31.65064910355036       -2.07586363435051       -2.01745058884710
H           29.72240983924389       -3.40252876900460       -3.34421293576905
H           29.14195323558115       -5.68985273229341       -5.54121603875543
H           28.97591444441233       -7.48725313020363       -7.25401187248001
H           24.86731976130517       -7.40350254945207       -7.16998949265956
H           24.84507720995980       -5.60215289571871       -5.45344325605806
H           24.41969742062649       -3.33123315921357       -3.30102044690107
H           22.55206021738566       -1.94855101478499       -1.94275528180146
Zn          64.40883020913343       -0.20673660762189       -0.12987751460464
C           67.82858356118547       -0.24587310792468       -0.15983857605189
C           67.19366587310525       -1.44470708480203       -0.46034477973594
C           67.85719670764767       -2.67812987437625       -0.77812464725003
C           66.88909925264913       -3.60152988489097       -1.00786635509822
C           65.62677603213683       -2.93976684305675       -0.83196716987547
N           65.84038638415593       -1.63913464876624       -0.50169138809702
C           64.36615997017442       -3.54826542379822       -0.98037604177878
C           64.34974965855169       -4.91545721049473       -1.33519734522216
C           64.33890848130027       -6.08893862678540       -1.64472583865397
C           64.32832461062694       -7.45473459193962       -2.00823299885473
C           63.12677338710059       -8.14951442723172       -2.19125842806416
C           63.17237050405326       -9.48492724044081       -2.54946928014902
N           64.30977082477726      -10.15147018472047       -2.73113648509541
C           65.45630444793638       -9.49826663772645       -2.55871724519361
C           65.52021529990422       -8.16352213792322       -2.20100682138070
C           63.12313160180582       -2.91314244632952       -0.80949055398524
C           61.84846224000108       -3.55112037679348       -0.96338973666531
C           60.90092511962361       -2.60889362702711       -0.71876538626557
N           62.93530644226734       -1.60361008764502       -0.47577556604062
C           61.59137995596920       -1.39010334993243       -0.41433730232173
C           60.96475899289506       -0.16623179100755       -0.10435073430162
C           61.62297462872835        1.04215867959242        0.19860736496792
C           60.96585086216295        2.27603314204430        0.51536751591335
C           61.93888711153164        3.19548082237440        0.74674087955425
C           63.19594777626506        2.52829159509405        0.57196782255799
N           62.97245433553119        1.22405417872855        0.23997258199435
C           64.45630464814380        3.13413025232156        0.72157504280070
C           64.47919444649281        4.50137608345271        1.07586306983178
C           64.50585665535205        5.67506150429795        1.38370715342973
C           64.54043946856974        7.04115040437957        1.74462824954489
C           63.36292270378968        7.77085617198769        1.94666927561476
C           63.45344459077133        9.10497810605005        2.30123296135272
N           64.61263533600146        9.73848501596020        2.46204017786875
C           65.73661381622063        9.05195486636838        2.27140786100617
C           65.75556488148844        7.71536212000454        1.91547752983442
C           65.69990344422108        2.49679105208143        0.55098841413420
C           66.97990418552538        3.12976127777265        0.70398902510649
C           67.92262851336125        2.18479640144375        0.45712806822970
C           67.22589720875264        0.96670858398827        0.15168584970069
N           65.87824926162239        1.19169940838880        0.21726305147668
H           68.91419065156458       -0.25788768695471       -0.16954803065273
H           68.92726661600796       -2.80881665329881       -0.81748787788881
H           67.00794088439059       -4.64028683104587       -1.27296741730600
H           62.17763840851796       -7.64560327403145       -2.05398169582577
H           62.25534765193472      -10.04786883212028       -2.69834238940406
H           66.36554543152880      -10.07179765238385       -2.71479727851639
H           66.47617778668226       -7.67055678967524       -2.07135075414358
H           61.70498871041075       -4.58749617819924       -1.22494749976114
H           59.82870584325190       -2.72157200152177       -0.74081580113520
H           59.89687524977261        2.41295454389647        0.55412416260127
H           61.82393524778220        4.23443204908407        1.01221216339755
H           62.39733119293525        7.29458182105304        1.82663545142641
H           62.55582129873800        9.69458024433630        2.46444319465440
H           66.66466660644322        9.59905248385537        2.41079356170316
H           66.69446021482700        7.19461705848858        1.77053540926498
H           67.12711593135188        4.16552273615304        0.96652846970792
H           68.99591744267745        2.29125920937279        0.47711955225107
C           31.99163033354727       -0.21038115788182       -0.14590765398147
C           33.21577280828017       -0.23502053686541       -0.15617383783490
C           34.55880568191559       -0.26262259705119       -0.16959198312673
C           35.78878006328947       -0.29751078104565       -0.18046041797277
C           37.12672575714691       -0.33253921599248       -0.20231687679804
C           38.35648084573444       -0.36788734636144       -0.22855175011605
C           39.69880842292512       -0.41069292454570       -0.25292359207642
C           40.92263064507229       -0.44670319189470       -0.27607929945519
C           50.62914090322846       -0.37588121958960       -0.24180263293397
C           51.85229540877235       -0.32774888317169       -0.20740854240472
C           53.19407420378955       -0.27848636870624       -0.17740140470849
C           54.42359047803348       -0.23600553560968       -0.15044329302766
C           55.76134163431946       -0.20014003930783       -0.12995194158527
C           56.99149552263699       -0.17319616416218       -0.11666207450376
C           58.33449996922093       -0.15944362705114       -0.10584846536792
C           59.55889903327000       -0.15513426532254       -0.09796560602489
Zn          45.77692079083725       -0.50106959095173       -0.32305342886669
C           42.32775411442626       -0.47656284643339       -0.29973880330520
C           42.96956064735364        0.23063462981177       -1.33622311797275
C           42.29514267767272        0.94529872810796       -2.37924366601019
C           43.25509042041521        1.46846553402850       -3.18618866516680
C           44.52053773958234        1.08263602188598       -2.63510708504437
N           44.31632541577432        0.33222202396234       -1.51457073569214
C           45.77273959821657        1.43769908021334       -3.16805880376103
C           45.77435629561483        2.19035056198991       -4.36381679319639
C           45.78394145403502        2.81312398190029       -5.40542436010537
C           45.80041116264914        3.52775308068876       -6.62486769671393
C           47.00613278823550        3.92443072304407       -7.21556378145430
C           46.97060229709692        4.61242509414612       -8.41518486750156
N           45.83903963753878        4.92013607751117       -9.04422858138061
C           44.68861242300486        4.54756555063820       -8.48871808033239
C           44.61469902107120        3.85706977771842       -7.29221890662228
C           47.02602459764227        1.10804633250236       -2.62097593025064
C           48.28943378280245        1.51942001050233       -3.15822892613570
C           49.25106001560330        1.01083697363442       -2.34404909200018
N           47.23317402891860        0.35802381896848       -1.50084234936039
C           48.57986698910067        0.27965496175250       -1.31059983048453
C           49.22496068287421       -0.42517750300390       -0.27474171603261
C           48.58366368791688       -1.18685861324193        0.72253926106509
C           49.25854309698988       -1.93498605974650        1.74135281498756
C           48.29946927198649       -2.54296479154285        2.48755467679916
C           47.03400557968887       -2.16228816946330        1.93281996920372
N           47.23742981214593       -1.34049486577296        0.86348288885697
C           45.78227605270147       -2.56975100796306        2.42857829599843
C           45.78756479317428       -3.45937232343081        3.52623246679438
C           45.79989954781231       -4.24448557741047        4.45160951270559
C           45.81926604886765       -5.16879626235370        5.52084467460361
C           44.63378709930063       -5.65904533416440        6.08116356512169
C           44.70985727761072       -6.57070574847273        7.11894221713837
N           45.86221596789425       -7.01084810753774        7.61810285005339
C           46.99367823091707       -6.54878275555359        7.09164013907267
C           47.02712553439844       -5.63597269341493        6.05274367628013
C           44.52837494079198       -2.17537543686467        1.92824762353392
C           43.26484874128675       -2.56783175982786        2.47903202945281
C           42.30235442321217       -1.97376219705916        1.72599651811626
C           42.97327187427757       -1.22234361380694        0.70686363899854
N           44.32053168682030       -1.35957419144525        0.85505627034038
H           41.22448993084722        1.02830425817336       -2.47750859111858
H           43.12544246913291        2.06671206422291       -4.07406731375379
H           47.95067197589794        3.69310608127508       -6.73806525793735
H           47.89110500904288        4.93086427079759       -8.89612089128927
H           43.78457810469185        4.81473135496368       -9.02845816298181
H           43.65591027935496        3.57224130264003       -6.87603265578592
H           48.41691045171192        2.12312683471664       -4.04269684099323
H           50.32092494296513        1.11353896071539       -2.43169489327004
H           50.32890363752541       -1.98704622187449        1.86156471354759
H           48.42996715853784       -3.18912319931511        3.34104610448075
H           43.67343532493376       -5.32846154549138        5.70429323888271
H           43.80593521259406       -6.96835970876803        7.57143709641084
H           47.91571767159122       -6.92860109211770        7.52239330810888
H           47.97159679548493       -5.28677243829364        5.65312512466377
H           43.13817724231719       -3.21185957516334        3.33472806108329
H           41.23210353930765       -2.03751226775754        1.84156645333255
