146
 energy: -254.693734033738 gnorm: 0.000280946558 xtb: 6.5.1 (b24c23e)
Fe          15.74686422434046        0.00365908912707        0.08771981080038
C           12.35156410875147        0.08131664587611        0.07007444869663
C           13.01010643155506        0.85060650394641        1.00773679996139
C           12.34252974301447        1.65438702772337        1.98778984324970
C           13.30731308585905        2.32293511781162        2.66287980107302
C           14.56129169363077        1.92659918185309        2.09214472054732
N           14.36741951046156        1.01237524484412        1.09241040980097
C           15.78401045259443        2.46620746747951        2.46473696726160
C           16.98891503699058        2.06919388952340        1.91042162353507
C           18.25400396942927        2.62905201124208        2.27947449583602
C           19.19937786766161        1.93332803784397        1.60339184097350
N           17.16104607853003        1.06021303576567        0.99255083561626
C           18.50999075422853        0.94958085030356        0.82757374573619
C           19.16390538843528       -0.01295605804826        0.04898180433879
C           18.47634572998509       -0.95533643352596       -0.72528899003149
C           19.13237855904260       -1.97242788862840       -1.48620908156513
C           18.16634172210695       -2.63301741993132       -2.16797323691988
C           16.92118336868873       -2.01768842255127       -1.81956637796984
C           15.70151175957528       -2.38422299233328       -2.36789617336196
C           15.68718738820479       -3.43316527532663       -3.42400981814401
C           16.23001269844927       -3.16754591071657       -4.68865381311130
O           16.73727185594420       -1.91997779227652       -4.86591321344410
C           17.32987797386881       -1.55380409122694       -6.09541701594614
C           16.21851050459448       -4.14755716509798       -5.68062286255168
C           15.67112086207226       -5.39075997083295       -5.40189186797780
C           15.13240727339319       -5.67773920712315       -4.15679386193940
C           15.13783880751933       -4.69616235450974       -3.16614648403016
O           14.64231117511996       -4.88399557912945       -1.91497067689649
C           14.09308819652420       -6.13130921988119       -1.54145405011274
C           14.49475714155878       -1.81935510136111       -1.97479147893309
C           13.22486068885249       -2.17128792980693       -2.54022664069795
C           12.28516635509971       -1.48151186465560       -1.85206727178997
C           12.98315615552356       -0.70306541209775       -0.87299916321972
N           14.33612864462364       -0.89259048082462       -0.98001761303194
N           17.12617598574292       -1.00683152448769       -0.91114667842535
C           15.80101449540233        3.52795291087340        3.51255068395667
C           15.93265750003359        3.18477573932578        4.86292539520485
O           16.03674154881421        1.85653524240280        5.12811316009001
C           16.18125447045374        1.40220001325833        6.45849136680076
C           15.95034932189465        4.17903573421534        5.84117896323264
C           15.83649510663154        5.50783630228537        5.46099614926488
C           15.70494798283745        5.86913569448030        4.12850776714638
C           15.68715586793958        4.87500417764701        3.15029816009318
O           15.56435790177613        5.12043751482427        1.81976640506459
C           15.45297296351398        6.44643850253147        1.34418557819053
H           11.26723221462735        0.09479954091714        0.07405109753273
H           11.27287261230214        1.69141169428505        2.12238380242853
H           13.19747791411755        3.02777739142567        3.47158884357799
H           18.38655784582405        3.44474927471825        2.97195543701515
H           20.26912491162302        2.06370942546730        1.61911773724689
H           20.19527652380257       -2.15084867124179       -1.48505332536266
H           18.27443438067311       -3.46461656666581       -2.84516850396130
H           16.60592220594210       -1.59412044733093       -6.91833126017318
H           17.67489117162746       -0.52570266695929       -5.97136378693263
H           18.18689273648805       -2.19492779009203       -6.33493547123481
H           16.63000368326467       -3.95070949322130       -6.66152663046288
H           15.66438921870157       -6.15363700584131       -6.17268039001195
H           14.71406203508982       -6.65711938808924       -3.96694808212807
H           13.78430105133910       -6.02725307874592       -0.49966308850373
H           13.21829729153781       -6.38475809178028       -2.15260878385928
H           14.83447038626247       -6.93582857736684       -1.61878700593738
H           13.08556461872244       -2.86429155436133       -3.35414083741061
H           11.21381442962585       -1.48780006441381       -1.97777120700847
H           16.24957913339204        0.31427400997210        6.40229256853255
H           15.31558973791035        1.67741938180251        7.07328173864647
H           17.09406665139345        1.79700823127088        6.92090565193973
H           16.05141473094576        3.92787112424820        6.88855623409895
H           15.85056208691555        6.28074126815111        6.22171463608537
H           15.61774900323848        6.91403650462536        3.86224854881293
H           16.33606147269334        7.04237406853077        1.60508975298315
H           15.37768620711038        6.37411357980303        0.25764691947376
H           14.55474768139376        6.93953928101024        1.73546341595347
Fe          26.60951953816434       -0.08631117118187       -0.01608224200439
C           30.00481934750859       -0.05782837398266       -0.09043714119209
C           29.34627603256741       -0.87670237878485       -0.98512224668887
C           30.01385144520535       -1.73263975087791       -1.91997002174290
C           29.04906750876962       -2.30591102102081       -2.67763882235538
C           27.79508970776062       -1.79725986051361       -2.20424990434828
N           27.98896321619797       -0.93753082181886       -1.15728298406579
C           26.57237121784222       -2.08941463117810       -2.79131741414874
C           25.36746765837231       -1.59711131042701       -2.31959189557331
C           24.10237863889154       -1.88288841019904       -2.92619923528224
C           23.15700500890370       -1.31249157586014       -2.14149050833309
N           25.19533691662423       -0.83187668344799       -1.19045724253785
C           23.84639251765586       -0.68428831133666       -1.05751054847562
C           23.19247898794297       -0.05032437286809        0.00586814633213
C           23.88003917980427        0.58222798375098        1.04867818796107
C           23.22400677461316        1.19095574432750        2.16354405513280
C           24.19004382783438        1.77197124254060        2.91427800806374
C           25.43520209513845        1.51450378393706        2.25569751298372
C           26.65487430639108        2.00520606880691        2.69640491207008
C           26.66919962433616        2.90160901116676        3.88473056435634
C           26.12637444186456        4.19116021117230        3.80144846922620
O           25.61911459762281        4.54384038997545        2.59171166525266
C           25.02650597632737        5.81289059658100        2.40390475047615
C           26.13787757788641        5.03385896785436        4.91243166266863
C           26.68526788894209        4.58135684144529        6.10343342099130
C           27.22398139404307        3.30811921769644        6.21063533023940
C           27.21854903082529        2.46695124851240        5.09829022223740
O           27.71407634128131        1.20178121535514        5.10648799466189
C           28.26330002528094        0.65486999494295        6.28809419917427
C           27.86162900648350        1.69632400267819        2.08142615833583
C           29.13152631874683        2.20603157221437        2.51010990117841
C           30.07122015449472        1.62282789909070        1.72957885562956
C           29.37322929028392        0.76426485987932        0.81995184878631
N           28.02025677667958        0.84328261162756        1.02275343680232
N           25.23020860703505        0.75888825418079        1.12605042481779
C           26.55536602392138       -2.97578020489298       -3.99113956938089
C           26.42372367681923       -4.36120992326613       -3.84326390377722
O           26.31964102676208       -4.81238576732730       -2.56616249385922
C           26.17512784419941       -6.19381161568983       -2.30541506925648
C           26.40603024374392       -5.18830821756589       -4.96640284927272
C           26.51988282702829       -4.62322381688953       -6.22772361731064
C           26.65142972104173       -3.25292493841684       -6.39607853551509
C           26.66922286497499       -2.42585175827380       -5.27307288473629
O           26.79202107985068       -1.07394848101100       -5.32701525496256
C           26.90340619900823       -0.41483210195832       -6.57201381692392
H           31.08915134976917       -0.05985276879669       -0.10434726169455
H           31.08350832457176       -1.86061290064844       -1.97573688361256
H           29.15890191492904       -3.00629452463221       -3.49021271897385
H           23.96982430725891       -2.45247354497255       -3.83199420029802
H           22.08725796077966       -1.30953609838713       -2.27278389387319
H           22.16110899383055        1.16446637814780        2.33999254601299
H           24.08195131058290        2.32417196953324        3.83363925403214
H           25.75046030188432        6.62173427293543        2.56070793268062
H           24.68149179405476        5.83613828203780        1.36860739712304
H           24.16949158074686        5.95890587825568        3.07255175249465
H           25.72638457665275        6.03277821091524        4.85691833628750
H           26.69200013022026        5.23596206176866        6.96806532588529
H           27.64232715232417        2.98107693456762        7.15311602937989
H           28.57208703070313       -0.36157517445247        6.03710533559452
H           29.13809113385667        1.22382447316099        6.62578766627625
H           27.52191829162240        0.61713577656059        7.09544084031096
H           29.27082335039921        2.91325354338682        3.31170032025050
H           31.14257236544557        1.74636137242593        1.75366089337239
H           26.10680396224242       -6.29272288679737       -1.22053813077236
H           27.04079210253835       -6.76327295598304       -2.66517542170973
H           25.26231515059248       -6.59545380403538       -2.76190509397634
H           26.30496487878682       -6.26074250108973       -4.86656555563644
H           26.50581478644702       -5.26643646711691       -7.10085141495429
H           26.73862765876253       -2.84093701741677       -7.39256125584122
H           26.02031745394150       -0.58843736879261       -7.19896755474148
H           26.97869386855955        0.65041472688525       -6.34607977557840
H           27.80163111902983       -0.73209802741035       -7.11569543807028
C           20.56897271352543       -0.03263005084437        0.04171081901335
C           21.78741166245305       -0.04592122905939        0.02637620767394
