120
 energy: -193.968134603585 gnorm: 0.000397989486 xtb: 6.5.1 (b24c23e)
C           11.83320660569676        0.08906054660403        0.06094316763531
C           12.44563972635050        1.26108094962736        0.48511877005590
C           11.80172583730245        2.43231616811185        0.97347325549746
C           12.76737804062281        3.35786980989278        1.25425254845056
C           14.03206140703194        2.78779281331079        0.93192906446269
N           13.78767994046470        1.51713340887708        0.49159005681692
C           15.29270626200033        3.38793218366855        1.01653132624635
C           15.33858891171011        4.79983348547040        1.46769137428788
C           14.69838912804842        5.77820741104832        0.80938065273164
C           14.71850311219819        7.21271001608938        1.26999516438320
N           15.78844394560076        7.44380888100610        2.24414635941473
C           16.27644845384621        6.41159518618345        3.00294882034589
C           16.11718902930861        5.12267739045387        2.65523926732689
C           16.50187714570263        2.75778371676994        0.70731482844044
C           17.78048888369731        3.44303230253186        0.68793323974295
C           18.70569237805272        2.51474679918116        0.36780656150885
N           16.67003175657259        1.44687028313662        0.38070837610729
C           17.99506267903587        1.26394441538648        0.19762505802685
C           18.64624585517509        0.04208541791587       -0.07062817917096
C           18.00427349144116       -1.18672581868109       -0.32297276104922
C           18.63402530943377       -2.43929801785399       -0.53995485270606
C           17.66261585101869       -3.36202412852828       -0.81343675944781
C           16.40564179302436       -2.69999503885526       -0.77100544633162
N           16.66201335572574       -1.39198803032843       -0.45345665585389
C           15.14581750607038       -3.26723064242755       -0.99800422869628
C           15.12486431602982       -4.69036866262564       -1.41118601482976
C           14.48365665434375       -5.62513731974558       -0.69324318027128
C           14.43528097216787       -7.07251321479428       -1.10771478783549
N           15.46149974325954       -7.37249282712744       -2.11005354607738
C           15.94501341278889       -6.38302538194736       -2.92710603854252
C           15.84051018139834       -5.07847844775636       -2.61920004471677
C           13.92901339093619       -2.59266358056395       -0.85770738230861
C           12.62872826255167       -3.17389057200742       -1.15330316203909
C           11.71073421490706       -2.23490101087223       -0.84603108489134
C           12.44952870000543       -1.07596629087728       -0.37834582245438
N           13.78188376849956       -1.32022874488214       -0.41656225497236
H           10.74802364049375        0.09177593488403        0.07987640178213
H           10.73541843852034        2.53806765037027        1.09556753517107
H           12.62206426507795        4.34766008957902        1.65565043125525
H           14.50760303328392        0.86154126628232        0.20696368165994
H           14.12175178521134        5.58201285884455       -0.08714921454610
H           13.74056112661841        7.48596762862448        1.70922815413808
H           14.88750954634186        7.88188886361798        0.41537964146984
H           15.74194800936783        8.34614102075995        2.69486718155929
H           16.87051479377211        6.71788724558143        3.85812873423454
H           16.55350389483065        4.32398654535574        3.23810199572622
H           17.92649977406089        4.49427081042461        0.87689109346832
H           19.76679717046365        2.64554778519314        0.23611827087108
H           19.69545978018540       -2.61042388839281       -0.48108843821190
H           17.80147686566558       -4.41111631543653       -1.01762772304415
H           15.94722961711345       -0.68280015109733       -0.32905680473684
H           13.95298712010609       -5.37953715791556        0.21915925132465
H           13.43322308689731       -7.32236010335742       -1.50420551970872
H           14.61074179829685       -7.72086566654147       -0.23868383495752
H           15.36648672493980       -8.28697715019409       -2.52776450482041
H           16.49132330986555       -6.73726261479916       -3.79554421254039
H           16.27111547043671       -4.31496779134462       -3.25154096938426
H           12.46517167009240       -4.16140269731248       -1.55390977029910
H           10.63614216005683       -2.28891595877492       -0.92655576400715
C           29.49750359529555       -0.10746232268911        0.00439272568742
C           28.88515204404628       -1.32706644291533       -0.25295085158703
C           29.52916098424637       -2.57975013458994       -0.45529244446280
C           28.56357658914820       -3.51437755272484       -0.70447014252215
C           27.29882874798783       -2.86015983956350       -0.67772427052608
N           27.54312028900074       -1.54820314466576       -0.38227814298236
C           26.03819653705288       -3.41491474114465       -0.92187127167133
C           25.99238896766419       -4.85258145218444       -1.28259936395821
C           26.63250744330075       -5.33706599660306       -2.35776295977655
C           26.61242666744995       -6.79892427754675       -2.72236536959859
N           25.54272013921044       -7.50884431539274       -2.01604143454238
C           25.05482482027107       -7.03153984115553       -0.82712301850650
C           25.21397039301288       -5.75286905653863       -0.44340357363127
C           24.82896257510752       -2.71652893839378       -0.85242279295470
C           23.55038781263333       -3.28872275289610       -1.23005476519529
C           22.62512255737583       -2.33116385589819       -1.01283191157668
N           24.66076446309781       -1.43023422363338       -0.43937895999011
C           23.33566090757140       -1.17851462337099       -0.49809103364482
C           22.68443334772568        0.00117981250292       -0.08194223772064
C           23.32635804996692        1.17849132216598        0.35123948109918
C           22.69654901751222        2.35721799990394        0.82720128250928
C           23.66789685478175        3.28557956000678        1.08111197279989
C           24.92489858150615        2.70072502484576        0.76812689027664
N           24.66859560705882        1.42181568537067        0.34843060712409
C           26.18467236865092        3.30253478440827        0.87410241190422
C           26.20554793364069        4.72966381290209        1.27329788118759
C           26.84680176609215        5.14549013423611        2.37614440970175
C           26.89507838539714        6.59387594273861        2.78707789232718
N           25.86884682607303        7.37720470790521        2.09350075334351
C           25.38522915900950        6.96712822842715        0.87762832035518
C           25.48974056529891        5.69627455141981        0.45150147169160
C           27.40150853594298        2.65548106151959        0.63755669450812
C           28.70174714577461        3.30530441264375        0.69280654374696
C           29.61980547531012        2.34548970996648        0.45880952590717
C           28.88110162123998        1.11405935276834        0.24532208600852
N           27.54873648941631        1.34163977893639        0.34176296815951
H           30.58268740480969       -0.11967838882327        0.01903609500353
H           30.59548642763272       -2.73387475757416       -0.40734907046403
H           28.70897328374946       -4.56707430115741       -0.88505182297986
H           26.82314115017159       -0.84111153909263       -0.27857756128793
H           27.20902591845052       -4.69779454729933       -3.01634311139159
H           27.59046103646883       -7.26257249627604       -2.49336380933914
H           26.44316064484345       -6.91719629353904       -3.80129832287877
H           25.58931518019087       -8.51322862538403       -2.10852686411105
H           24.46092455924423       -7.74259543960493       -0.26166319795727
H           24.77772757621786       -5.38130839554344        0.47291638653494
H           23.40441460566236       -4.28174170730821       -1.62339347352153
H           21.56399631139959       -2.37303857754807       -1.19349996735653
H           21.63511554645585        2.47151878489614        0.96753700267873
H           23.52898619065533        4.28468319665481        1.46065497706670
H           25.38343240979280        0.75366102945920        0.08026444378241
H           27.37753880539757        4.45578641578503        3.02192360528161
H           27.89712410139779        7.01525967257516        2.58192944771622
H           26.71958516912038        6.68660404941276        3.86734294496335
H           25.96386470888690        8.37449963283221        2.22064164392797
H           24.83886448064254        7.72596359834811        0.32646848598873
H           25.05905362947768        5.38083976010925       -0.48830537665927
H           28.86521450804006        4.35566152489729        0.87293759808784
H           30.69438713375127        2.43393716067187        0.41877240685848
C           20.05618909911078        0.03269573817466       -0.08380056921975
C           21.27449175735086        0.01619247624544       -0.08817856884199
