470
 energy: -791.991500467113 gnorm: 0.000405365587 xtb: 6.5.1 (b24c23e)
C           76.00605994917059       -0.09238970799658        0.05577393423053
C           76.61955253208770       -0.96678772630718        0.94403640708348
C           75.97245412187610       -1.89153592881785        1.81017001595350
C           76.93698980698963       -2.54467070962977        2.52550612164546
C           78.20388924666877       -2.03135725937924        2.12769763300539
N           77.96214942282870       -1.09295631223643        1.16465260780668
C           79.46780334158099       -2.40397376159722        2.60273929191709
C           79.50395416869068       -3.41562897913713        3.68456466586433
C           80.18435255215432       -4.62319362440086        3.50737268733811
C           80.21736359223090       -5.57340790914471        4.51214405728982
C           79.57877387654524       -5.32838134503603        5.73066438390535
N           79.57694140450953       -6.29208914230458        6.72383499168721
C           78.89194690179718       -4.12551099535075        5.91442457217479
C           78.85591112983374       -3.18460710590858        4.90062678508356
C           80.67840918572655       -1.89094056549661        2.12971944148761
C           81.97564713345845       -2.23408426707466        2.68342295257198
C           82.89192327770766       -1.55579395763104        1.96137978693729
N           80.82793621782355       -1.00091186505306        1.10937200893846
C           82.15266465376520       -0.79078696647104        0.97656933771878
C           82.78603314048098        0.03371315938620        0.02330695038074
C           82.14668941101566        0.85250998484552       -0.92766687146439
C           82.78805685396060        1.65665917043631       -1.90622825255521
C           81.81909809959760        2.31275514006407       -2.61425416811726
C           80.55512707957804        1.93586015637493       -2.08239823958787
N           80.80534679975760        1.04304704606093       -1.07301390796540
C           79.29224518061338        2.36573345271682       -2.50555030854390
C           79.25539217674881        3.37919103217069       -3.58460417710686
C           78.59037578816992        3.11840391747845       -4.78570918838020
C           78.55508874791418        4.06161866050774       -5.79698958513905
C           79.17549167886612        5.30147151013446       -5.62203858686470
N           79.17491504782430        6.23282419785300       -6.64539636145064
C           79.84715110624226        5.56863597770075       -4.42619112484555
C           79.88584538553758        4.61593707686735       -3.42379787304495
C           78.07877502405734        1.90455092884196       -1.98085590036606
C           76.77192564863222        2.40011961178841       -2.38289581394208
C           75.86268845584026        1.70510486897051       -1.66933424788661
C           76.61314320255408        0.79681830960348       -0.82120713830676
N           77.94432192640267        0.95273586243108       -1.02742939086082
H           74.92073084423866       -0.11186330201471        0.05558973978980
H           74.90492917571517       -2.03461991452329        1.86429039975342
H           76.78900497902218       -3.32198534787476        3.25749731205117
H           78.68549260152837       -0.57136539034751        0.68092088860333
H           80.67433198871795       -4.82506637799232        2.56119484637812
H           80.73975092764495       -6.51129949653369        4.35828198328029
H           79.40111751535797       -5.94572953576257        7.65343904793432
H           80.33196957583077       -6.95726537714918        6.67335372417755
H           78.39167657174872       -3.93053615943842        6.85677812837007
H           78.33832268603084       -2.24480074025244        5.05987490070103
H           82.14127895618618       -2.89151721851048        3.52153958838364
H           83.96456543879329       -1.54872569551316        2.07175470915832
H           83.85531886255993        1.71445240500479       -2.04739069765574
H           81.96449821203524        2.98853729068740       -3.44114833346529
H           80.08454060090507        0.58600494224315       -0.52422446952554
H           78.11571189382941        2.15465728342858       -4.93405231310663
H           78.04529372690268        3.84260598063696       -6.72886337753454
H           78.42819006927022        6.13156031197494       -7.31407358464519
H           79.33711994681620        7.18424207859109       -6.35648177740035
H           80.33351638380017        6.52775736604315       -4.28541985872399
H           80.39130957603231        4.84005426287109       -2.49067695827743
H           76.59764991492912        3.18422806110565       -3.10215486372291
H           74.78687900832992        1.78535876967379       -1.68528455681685
C          194.26225552698395        0.05959496085606       -0.10869489072449
C          193.64602280906919        0.71332713801173       -1.16832778711724
C          194.29093647017828        1.34926805032143       -2.26548041212885
C          193.32380647326772        1.88070180562556       -3.07223766326041
C          192.05728086803603        1.59612308064739       -2.48771356982004
N          192.30210220009147        0.88118175580134       -1.34958260130055
C          190.79121553115868        1.95284614795542       -2.96912753998933
C          190.75177898721739        2.76977761135569       -4.20462057115305
C          190.08796273546915        2.30731221252528       -5.34385227036386
C          190.05113883060324        3.06518758728827       -6.50055074330856
C          190.66893216214439        4.31797836153647       -6.53839855889042
N          190.66678497174209        5.06232702203344       -7.70511373761497
C          191.33961467539535        4.78559190238640       -5.40531594400649
C          191.37970431171857        4.01686922718544       -4.25561479354456
C          189.58164230834092        1.59571859532421       -2.36770889525155
C          188.28099463811009        2.03304248429439       -2.84121594449750
C          187.36735917399656        1.48125084781601       -2.01558789419835
N          189.43621964578230        0.81458085171253       -1.26115707246544
C          188.11142177507310        0.71866586727102       -1.03243163342615
C          187.48192062969443       -0.01042093859445       -0.00188219847060
C          188.12477676347837       -0.72818081251846        1.02521740407658
C          187.48710528731203       -1.48983915373120        2.03955533851252
C          188.45859038926028       -2.01564559914788        2.84599177819820
C          189.72044973464125       -1.58198651283768        2.35378272107890
N          189.46646982108717       -0.81556619539432        1.24618001410292
C          190.98487049807770       -1.88461213062903        2.87172023701230
C          191.02652174394109       -2.69643785064877        4.10952988153437
C          191.69854737696488       -3.92144499458300        4.13595253549063
C          191.73888038547534       -4.68440313872804        5.28912278925982
C          191.11656033133556       -4.22837571185518        6.45424074668361
N          191.12230774494867       -5.00603889661851        7.59873394871361
C          190.43797961181664       -3.00701832866311        6.43525789621071
C          190.39431658655494       -2.25489310141942        5.27490607436060
C          192.19630916224034       -1.47459501125499        2.30172057277573
C          193.50406916091072       -1.73964572761840        2.88019591925934
C          194.41083778565604       -1.19979608499992        2.04042158801112
C          193.65788977960955       -0.59284702760172        0.95776638957189
N          192.32763694133664       -0.76857646191580        1.15399032603850
H          195.34764117163439        0.06673250918528       -0.12308607005854
H          195.35894200951128        1.38266601130006       -2.41128828705830
H          193.46982783281359        2.41413362096441       -3.99747498672615
H          191.57998714578704        0.52284374496363       -0.73359977265374
H          189.61406525120088        1.33203162088315       -5.32565133232896
H          189.54167867249643        2.69044856699383       -7.38159001854011
H          190.82484986618690        6.04956692113555       -7.58084396761428
H          189.91969141922078        4.84739388042536       -8.34600702334789
H          191.82394724790871        5.75572649423554       -5.42927356556326
H          191.88442717747702        4.39706403132065       -3.37402461956732
H          188.11117032502599        2.68725603598972       -3.68100051376933
H          186.29346531176211        1.57522902776555       -2.04173417648379
H          186.42050931783550       -1.61944717950958        2.12845764697930
H          188.31629759092891       -2.65842704785370        3.69931378403775
H          190.18522508207047       -0.38765827265253        0.67179602172847
H          192.17489129897831       -4.28785269640340        3.23319884309779
H          192.25417167345790       -5.63870855144518        5.29339377438885
H          191.87275953215260       -5.67577866494532        7.65576511926430
H          190.95790582059615       -4.50400229507934        8.45657864075245
H          189.95015229230577       -2.64899131731283        7.33532855705551
H          189.88353347953748       -1.29805759668189        5.27538527780571
H          193.68043739735225       -2.25517606978448        3.81059877163073
H          195.48638136716912       -1.18760230594584        2.12477308274933
C           84.19069237580418        0.04919933304308        0.01081595737186
C           85.41569614178279        0.06000052478860       -0.00184219680110
C           86.75765786055864        0.06760456399733       -0.01155357200432
C           87.98879608075312        0.07304012957616       -0.02035578399010
C           89.32601653749172        0.07771207944498       -0.02741305953943
C           90.55727117476036        0.07900907388076       -0.02977153842737
C           91.89906211490491        0.07966600555726       -0.02846432783657
C           93.12438077054111        0.08144069626035       -0.02991631650502
C          102.78139958595830       -0.01244881683957       -0.00401837236183
C          104.00678088447761       -0.03064335414383       -0.00681744565267
C          105.34802562743113       -0.04590163350038       -0.00695079363091
C          106.57953056142969       -0.05532360238235       -0.00843539772446
C          107.91622430143617       -0.05993268461200       -0.00851239436202
C          109.14775498450823       -0.05889054347908       -0.00942018051909
C          110.48906841551354       -0.05230477635031       -0.00830657239609
C          111.71453188911779       -0.04041466891769       -0.00911637863229
C          121.37143408074364       -0.02131396295097       -0.00336039962123
C          122.59689219405965       -0.03284811109599       -0.00799093129721
C          123.93814800904723       -0.04213683040212       -0.00875785566716
C          125.16965505568358       -0.04729465167391       -0.01002996324617
C          126.50629346663982       -0.04844878069533       -0.01198740559925
C          127.73782436500828       -0.04579840671311       -0.01146303231000
C          129.07910917003289       -0.03906840816287       -0.00943193546405
C          130.30454828351884       -0.02677072782921       -0.00972788536923
C          139.96146847241641       -0.02667130470358       -0.00741217910920
C          141.18695225587044       -0.03595430776246       -0.01154158303540
C          142.52824957305899       -0.04155612206257       -0.01129829718087
C          143.75979725717573       -0.04272228926645       -0.01152559043394
C          145.09647627905582       -0.04077086604019       -0.00956286472512
C          146.32801161405266       -0.03439733781261       -0.00688326633941
C          147.66927760054352       -0.02447713369230       -0.00346909876963
C          148.89472998361822       -0.01143486026039       -0.00311247693786
C          158.55201582429811       -0.01940235889679       -0.00621519316463
C          159.77750351198881       -0.02707371592545       -0.01158010547960
C          161.11883942429156       -0.03200532764274       -0.01276923377328
C          162.35037763504508       -0.03211553993429       -0.01417116281007
C          163.68706869676569       -0.02799230028048       -0.01164063089576
C          164.91857329858263       -0.02081366622948       -0.01075374093086
C          166.25988402659090       -0.01203617108335       -0.00666467354421
C          167.48534089791718       -0.00060961856552       -0.00429140884314
C          177.14352745581448       -0.01924132908069        0.02384253135375
C          178.36877421237756       -0.03131765117456        0.02460891230143
C          179.71053830101715       -0.04094277318172        0.02797677695659
C          180.94178607812009       -0.04814527515117        0.03067302878491
C          182.27905923924718       -0.05050250897105        0.03005121397168
C          183.51024900136804       -0.04804020203225        0.02776392974809
C          184.85225878727897       -0.04039167929332        0.02297749449826
C          186.07727300549342       -0.02745446642973        0.01409153153814
C           94.52815057948912        0.07907309391091       -0.02373528584172
C           95.14719009573680       -0.23696478279351        1.20195893339010
C           94.48980904637619       -0.58251252603461        2.41024655097540
C           95.44719597600530       -0.78138185031478        3.36792012381277
C           96.71711490327965       -0.55342012691786        2.77269910924130
N           96.48535711109824       -0.24051562488577        1.45960863905774
C           97.97139477644320       -0.63848805744514        3.39199055878052
C           97.97388693677645       -0.92871963107341        4.84514026391904
C           98.62228022197273       -2.06083541101633        5.34548315458900
C           98.62494633767083       -2.33586369907698        6.70116125557769
C           97.98831856327089       -1.46972425040613        7.59410906714008
N           97.95686119348881       -1.76091323793943        8.94624144010814
C           97.33305696710049       -0.33809241154562        7.10143839910313
C           97.32631297985367       -0.07613522792950        5.74305269468822
C           99.19944088087243       -0.47144769557385        2.74857161097331
C          100.48105726526538       -0.50079469888764        3.42961115289889
C          101.42377663912654       -0.32669083431145        2.47978507948896
N           99.38400071350732       -0.25459912525701        1.41650454003312
C          100.71593988748698       -0.17714149549769        1.22436721629894
C          101.37831680136246        0.01122977755702       -0.00630963572914
C          100.75840359407498        0.23011940594280       -1.25266084423846
C          101.41415741587727        0.38956978086596       -2.50014059604869
C          100.45696812041950        0.60955238499714       -3.45329738864842
C           99.18889071115549        0.60016740693394       -2.81211854572381
N           99.42148092963002        0.35387851834498       -1.48484817230066
C           97.93568383837305        0.79274090950402       -3.40841401868180
C           97.93287361763765        1.10788864466033       -4.85634528967838
C           98.59892565202721        2.23622006458781       -5.34183731745687
C           98.59342532928737        2.53765224624262       -6.69203337503408
C           97.92083588665355        1.70790652562695       -7.59305545093487
N           97.95359282241260        1.97894269757732       -8.94931279834398
C           97.26499498574572        0.56924501064922       -7.11745240006245
C           97.26658397504829        0.28100459853043       -5.76454460558229
C           96.70827855068652        0.70981004261479       -2.74694596624752
C           95.42907323716810        0.98067564275904       -3.37732310782296
C           94.48600283689356        0.77585183233716       -2.43393242526182
C           95.19140667730056        0.39404032714402       -1.22735346958683
N           96.52282373055019        0.37616390259059       -1.43972975463720
H           93.42133973711677       -0.67104918885601        2.52307117165459
H           95.28864794173462       -1.07236525249270        4.39342630327404
H           97.21187883702036       -0.04707289372549        0.77845059953766
H           99.11061229487238       -2.74290123959189        4.65819587537471
H           99.12214107199212       -3.22380544170766        7.07602348881723
H           98.69295639055771       -2.36810840722137        9.26940949720895
H           97.78472731387082       -0.97217662868124        9.54891620328492
H           96.83416150397927        0.33629275039376        7.78886062309824
H           96.83263794099740        0.81523666297960        5.37134062022740
H          100.61987464823871       -0.62184808589513        4.49171980536429
H          102.49538262331978       -0.28785450221817        2.59354863459885
H          102.48134772121274        0.33551042260161       -2.64291584749579
H          100.61426891436223        0.75342256263042       -4.50971838278083
H           98.69595979665047        0.26850342563500       -0.78089366992050
H           99.10648943187462        2.89662479577878       -4.64709121414536
H           99.10701582857415        3.42118563820957       -7.05513478616266
H           97.20879866671154        1.56373597204843       -9.48581627767796
H           98.14227827094463        2.93922592059265       -9.18845710800577
H           96.75395783512562       -0.08667197069373       -7.81370832305092
H           96.76332589983657       -0.60963563493991       -5.40462855481379
H           95.29229301500540        1.29941066873320       -4.39796437335211
H           93.41574681044845        0.87697322695224       -2.51828069739679
C          113.11773268437199       -0.02446802736362       -0.00490346275761
C          113.74318412633475       -0.31785342637759        1.22330284201566
C          113.09248659715061       -0.65833743576375        2.43659292715629
C          114.05418999807330       -0.83501114282273        3.39432359486894
C          115.32003946697880       -0.59864753403392        2.79378115695563
N          115.08171858764254       -0.30228450454134        1.47795172626041
C          116.57663029937808       -0.66511914924940        3.41057816940057
C          116.58527209279517       -0.94044005252528        4.86661039119058
C          117.24442413325494       -2.06164523254072        5.37732162655299
C          117.25271212663530       -2.32210583264640        6.73585224766433
C          116.61093688944186       -1.45188318756520        7.62113292660127
N          116.58529779548657       -1.72878671257088        8.97633162413591
C          115.94476710268874       -0.33123813699627        7.11805856623609
C          115.93247278211064       -0.08392627508728        5.75698374166024
C          117.80147156366564       -0.49319188945001        2.76228132243066
C          119.08529241052018       -0.50778485225932        3.43954350792852
C          120.02379596053498       -0.33366446191316        2.48554628639189
N          117.98030839031311       -0.28433304854212        1.42814855732537
C          119.31103590100666       -0.19748634985714        1.23143280887147
C          119.96823513341205       -0.00788392548707       -0.00186810039860
C          119.34306698602266        0.20501611337557       -1.24664446203839
C          119.99426947924502        0.37522878469952       -2.49503622564445
C          119.03250596670533        0.58641606317729       -3.44564260824231
C          117.76601521627258        0.55918914757578       -2.80202075385756
N          118.00423022029518        0.31307617925527       -1.47581403788902
C          116.50917019870683        0.73368415548437       -3.39656476880974
C          116.50068165867889        1.05496791801070       -4.84319826157313
C          117.14570179919120        2.19821463973383       -5.32218882107070
C          117.13397835451003        2.50760187087590       -6.67051752200395
C          116.47638169154460        1.67094593196626       -7.57621230801492
N          116.50307807773926        1.95095811710508       -8.93075746018878
C          115.84241362429772        0.51724505679041       -7.10723716823395
C          115.84988980584693        0.22098985505059       -5.75604555948528
C          115.28401186652454        0.62841671883981       -2.73463686133943
C          113.99954869296903        0.87401284498431       -3.36461438835234
C          113.06116024916011        0.65378423035219       -2.42007114094749
C          113.77452377469879        0.28956611297117       -1.21267361119407
N          115.10555638151280        0.29421150808467       -1.42628500782145
H          112.02540664440752       -0.75873619860807        2.55260122823640
H          113.90132613756090       -1.11670291522743        4.42328042652683
H          115.80439544486430       -0.10726208418908        0.79316277085073
H          117.73673245420322       -2.74695671701000        4.69613268622481
H          117.75832657393386       -3.20175188652046        7.11890930556594
H          117.32716386244908       -2.32637146108587        9.30416943820148
H          116.40779664666358       -0.93521551559410        9.57104055683334
H          115.44174558680945        0.34616028018844        7.79948389435879
H          115.43015577225758        0.79907326302339        5.37695617180200
H          119.22835421070427       -0.62023101339738        4.50202482505417
H          121.09540230983436       -0.28592784631513        2.59577774023100
H          121.06175440052043        0.33468288540419       -2.64005154430809
H          119.18572507662780        0.73535750120691       -4.50196320407599
H          117.28126938436966        0.21759801996907       -0.77051726583552
H          117.64141938385070        2.86357546531961       -4.62362520882889
H          117.63086503765598        3.40270119253734       -7.02848887213008
H          115.76586732076100        1.52517453337368       -9.46943506841731
H          116.67354690318489        2.91608405738021       -9.16402395177204
H          115.34353780005603       -0.14399569351762       -7.80726356513356
H          115.36365006524845       -0.68111919444646       -5.40135163968263
H          113.85596905959758        1.18742034629589       -4.38595833832450
H          111.98917009363296        0.73486811335059       -2.50394440040046
C          131.70775082343016       -0.01314722596485       -0.00568768296652
C          132.33299454708930       -0.30744971794663        1.22238773579030
C          131.68198144014048       -0.64503172190501        2.43634606632760
C          132.64370344176629       -0.82381706317069        3.39364390430188
C          133.90992899303990       -0.59195069184656        2.79211017727720
N          133.67170362517530       -0.29571817584413        1.47621566185713
C          135.16665982491062       -0.66249856169580        3.40803165551052
C          135.17531419358860       -0.93725808187222        4.86419751594463
C          135.82989115056779       -2.06116181387871        5.37482772341730
C          135.83820653496525       -2.32101304321137        6.73347659897521
C          135.20123160730952       -1.44743194365761        7.61891788132919
N          135.17565537389569       -1.72352251892984        8.97428107049592
C          134.53966056588638       -0.32403613970550        7.11590705961560
C          134.52717786191167       -0.07737379849766        5.75471241635457
C          136.39167502856466       -0.49478580186932        2.75890641712629
C          137.67581539443464       -0.51349207326349        3.43544521476831
C          138.61426492997191       -0.34118317551347        2.48107351172826
N          136.57033392077179       -0.28591602607260        1.42478543939238
C          137.90121090703195       -0.20231293591692        1.22742053105929
C          138.55826650646466       -0.01317595827911       -0.00598534112421
C          137.93303818868995        0.20014936889481       -1.25068824216865
C          138.58404214014294        0.36811420295245       -2.49946843025897
C          137.62230979621586        0.58093949632610       -3.44977271037702
C          136.35609607812904        0.55721587576908       -2.80550829775445
N          136.59433199339475        0.31101022795595       -1.47934288252180
C          135.09937317005850        0.73541422866391       -3.39931948868421
C          135.09067847780031        1.05674559615151       -4.84591992847936
C          135.73920223971831        2.19772027944848       -5.32560184140030
C          135.72659415417198        2.50748200231819       -6.67383751274320
C          135.06448941895175        1.67353670343199       -7.57875015269534
N          135.08989894933265        1.95395381200609       -8.93322687080667
C          134.42712922985842        0.52196233527270       -7.10913640037126
C          134.43559036027105        0.22531905773260       -5.75804557694194
C          133.87436385703273        0.63406046825671       -2.73655713459044
C          132.59024154862831        0.88382800461040       -3.36562181633306
C          131.65177874073422        0.66596842791062       -2.42061555069204
C          132.36481033781976        0.29928265253546       -1.21376684672030
N          133.69568423213454        0.30006367462708       -1.42814324840511
H          130.61466442258009       -0.74200283110616        2.55307492335352
H          132.49063187732739       -1.10404745456971        4.42296992221134
H          134.39456199546609       -0.10345297741210        0.79083666082569
H          136.31854770431454       -2.74895967817798        4.69351565129699
H          136.34014990795620       -3.20276930233694        7.11650582300774
H          135.91503860503553       -2.32441060820721        9.30168640459052
H          135.00244918353724       -0.92883574800493        9.56876802535669
H          134.04036782732180        0.35598559643950        7.79746261271229
H          134.02845954030190        0.80766021827995        5.37467666138746
H          137.81912974725924       -0.62722939095299        4.49775470638810
H          139.68606324689929       -0.29658528570210        2.59074953697384
H          139.65135475245472        0.32488037239753       -2.64498050886739
H          137.77536954283659        0.72881709869384       -4.50626656230604
H          135.87148577265154        0.21781288211490       -0.77362283815162
H          136.23831613312083        2.86115401639221       -4.62762392570185
H          136.22619100990309        3.40086424146640       -7.03232319272398
H          134.35021255415589        1.53106726046671       -9.47079517382898
H          135.26348763824501        2.91853814801867       -9.16643548622928
H          133.92476464125929       -0.13725648210709       -7.80857410116609
H          133.94662455913974       -0.67511850971638       -5.40285307348128
H          132.44694381222138        1.19824289531979       -4.38669222602045
H          130.57999145162538        0.75038257416645       -2.50377315726972
C          150.29792178343098        0.00177711144561        0.00075595268124
C          150.92345816384076       -0.29383517752468        1.22832343492745
C          150.27271254308002       -0.63092531987113        2.44258364875831
C          151.23488213923216       -0.81352329696708        3.39868250742124
C          152.50117408698108       -0.58436922149661        2.79618038390886
N          152.26240879963305       -0.28554409061046        1.48094117625624
C          153.75832395525379       -0.65956344241831        3.41054975334935
C          153.76786840805013       -0.93963118078407        4.86574587212578
C          154.41885657014612       -2.06806645420665        5.37091381413450
C          154.42706987649802       -2.33405135926343        6.72837537584401
C          153.79372637156203       -1.46219412257754        7.61810459124821
N          153.76760230195603       -1.74450142210090        8.97219100573795
C          153.13618997620279       -0.33400164695728        7.12058551311954
C          153.12366593062956       -0.08123226013884        5.76049711664380
C          154.98315076689661       -0.49239530573579        2.76085378138594
C          156.26760625591925       -0.51430155767559        3.43668362459591
C          157.20572658096111       -0.33980777962249        2.48237503523752
N          155.16130365515238       -0.28041781845150        1.42721372288521
C          156.49221450455386       -0.19736227262951        1.22938982585807
C          157.14875471990095       -0.00730961642843       -0.00409931546543
C          156.52291311976248        0.20442377967379       -1.24880296059601
C          157.17329422941941        0.36819201257908       -2.49843438913905
C          156.21114239612632        0.57854185478600       -3.44888204558323
C          154.94532572897378        0.55814931303679       -2.80375683324730
N          155.18415197156901        0.31574647658648       -1.47700044522880
C          153.68835232733215        0.73684871312737       -3.39699422396846
C          153.67849871643085        1.05189276408787       -4.84491748237874
C          154.33052128003419        2.18798639325657       -5.33138334688793
C          154.31698092204948        2.49092622874878       -6.68116686892422
C          153.65024275700901        1.65498397457082       -7.58082234469996
N          153.67467523930432        1.92834006050935       -8.93675039114844
C          153.00904604451125        0.50835940630251       -7.10436922781374
C          153.01861738375467        0.21850348326806       -5.75183720285945
C          152.46382489892278        0.64082401525449       -2.73256289582719
C          151.17982701834740        0.89360910402296       -3.36070269838557
C          150.24166338730186        0.68010737056800       -2.41440802228425
C          150.95479642505276        0.31270659646843       -1.20783910425755
N          152.28545207853622        0.30964571886909       -1.42337891001499
H          149.20524240754190       -0.72506085558398        2.56025959952842
H          151.08203265726931       -1.09449643545552        4.42783903562945
H          152.98511419549541       -0.09470760205178        0.79499988485918
H          154.90466378563906       -2.75449318452674        4.68618704740308
H          154.92600328602032       -3.21936008988988        7.10711905002918
H          154.50477734911431       -2.34979203397947        9.29645472335448
H          153.59779685432653       -0.95191322348517        9.57044588794380
H          152.63991558167248        0.34483069748252        7.80552323730976
H          152.62793251680381        0.80729640714496        5.38474136226657
H          156.41125120001112       -0.63137171300086        4.49859122510771
H          158.27761928917164       -0.29644199143095        2.59162487122800
H          158.24047382517688        0.32355509005391       -2.64448571005785
H          156.36376800896119        0.72264613131793       -4.50595461819845
H          154.46163577484742        0.22503173346662       -0.77061578429444
H          154.83315261388285        2.85314663339557       -4.63758855214970
H          154.81947116158182        3.38052808966193       -7.04496716346167
H          152.93249733592879        1.50565171169253       -9.47102833061680
H          153.85185382360319        2.89097680914739       -9.17522627434210
H          152.50289339491886       -0.15237100123674       -7.79963834791315
H          152.52671923812463       -0.67821074759573       -5.39130948062964
H          151.03647495058837        1.20720220664024       -4.38201971270433
H          149.17006698781339        0.76787180564879       -2.49656281128941
C          168.88859173557859        0.01041822055025        0.00357201203255
C          169.50983778138385       -0.28840880110844        1.23251031972444
C          168.85476844456409       -0.62749427677128        2.44394577467788
C          169.81366912138955       -0.81502744553455        3.40229463968890
C          171.08230559131491       -0.58676607928747        2.80425122829473
N          170.84802201710127       -0.28351289590910        1.48915338873572
C          172.33732354999012       -0.66671032246834        3.42203675103150
C          172.34213362973310       -0.95191145816620        4.87626439574384
C          172.99005579726921       -2.08299041149792        5.37946039395943
C          172.99452192178816       -2.35328972078178        6.73609671423305
C          172.36029104622531       -1.48330662569986        7.62700331042612
N          172.33062541332475       -1.76974159001633        8.98021599555234
C          171.70552173809725       -0.35266736981792        7.13143881831423
C          171.69689154082940       -0.09547719894001        5.77214063822761
C          173.56460108391212       -0.49938522713572        2.77665275405009
C          174.84686296757363       -0.52639451970044        3.45650418855044
C          175.78831781252586       -0.34936315752415        2.50597617631855
N          173.74723537727536       -0.28192004946432        1.44471869279446
C          175.07910813957943       -0.20004849962142        1.25135388275096
C          175.73979473095662       -0.00355054836928        0.02136215300463
C          175.11855448923649        0.21579864670265       -1.22409319856748
C          175.77336173089222        0.38535315129889       -2.47069849541353
C          174.81447067470106        0.59714122970439       -3.42405857717504
C          173.54618038281981        0.57206222531729       -2.78386270442102
N          173.78040207893835        0.32629084528402       -1.45696988680269
C          172.29102800031899        0.74865698443688       -3.38157297623123
C          172.28549869301841        1.06322547640685       -4.82972731384696
C          172.93494049032509        2.20137125806435       -5.31469810713302
C          172.92507709766102        2.50318613185423       -6.66480629999722
C          172.26472456821949        1.66405182325370       -7.56617022093239
N          172.29293268984043        1.93644225608348       -8.92229038602848
C          171.62613542300730        0.51540965948319       -7.09113236102104
C          171.63198313397288        0.22667191691561       -5.73833391555717
C          171.06422071107926        0.65040183326188       -2.72177327411621
C          169.78233987026994        0.90229771715051       -3.35469570372960
C          168.84086869617852        0.68893025607093       -2.41169268142747
C          169.54978599549122        0.32170060561108       -1.20254734929793
N          170.88118806551978        0.31899569581483       -1.41328382074760
H          167.78676241744603       -0.71975478381906        2.55818724266002
H          169.65715293495583       -1.09883977062519        4.43012168379380
H          171.57314010505007       -0.09217070014095        0.80590241054241
H          173.47658088891674       -2.76796369467715        4.69378579207147
H          173.49128163289771       -3.24049239150582        7.11327458057660
H          173.06655281443085       -2.37666801750767        9.30427696953062
H          172.16058626268730       -0.97861893769771        9.58035756770880
H          171.20845110201543        0.32466792869922        7.81728263866223
H          171.20349293104243        0.79503132204198        5.39800395729690
H          174.98698032673016       -0.64820493738217        4.51834959666967
H          176.85990699463281       -0.30805061377165        2.61890609621858
H          176.84117632368225        0.34314972970781       -2.61281633012210
H          174.97085372992214        0.74520876994063       -4.48003601157731
H          173.05533466675089        0.23148719176141       -0.75374015084034
H          173.43261141671820        2.86895048315263       -4.61965391518158
H          173.42550329105416        3.39439413530556       -7.02752757513549
H          171.55414352945076        1.51051662430121       -9.45870587650049
H          172.46691656655523        2.89966232481738       -9.16078337232585
H          171.12490401412876       -0.14773670559649       -7.78767109503749
H          171.14199626762277       -0.67148891612068       -5.37879434078940
H          169.64260251081217        1.21538499114989       -4.37667464156463
H          167.76953223500792        0.77626458351482       -2.49768819004891
