256
 energy: -508.695138946908 gnorm: 0.000999603352 xtb: 6.5.1 (b24c23e)
Co          44.70167903235914        0.00638961513660       -0.08686170803012
C           41.33326345640755        0.00349006567879       -0.25263114064583
C           41.98491676075280       -1.20516920074242       -0.13264304855595
C           41.32016405309196       -2.46881760529222       -0.03330053764060
C           42.27937927668167       -3.42009476477093       -0.11801773413093
C           43.52771902386478       -2.73524841795501       -0.29022274570610
N           43.34343067411766       -1.37805978419541       -0.22392707136757
C           44.72646539254887       -3.35874602266115       -0.61107053068192
C           44.74090136001212       -4.82040999071705       -0.83588277201827
C           45.56438546660577       -5.64441406208217       -0.06240455849557
C           45.58228168501137       -7.01191361654451       -0.26719293997592
C           44.77357624986371       -7.56043762869698       -1.25853606668079
N           44.79125852732982       -8.99570534133097       -1.48047828320205
O           44.07040934340320       -9.43591395361022       -2.33890778345905
O           45.52541600494416       -9.65722015250616       -0.79232576266904
C           43.94918071949697       -6.75763366126041       -2.04175136079152
C           43.93475310153086       -5.39187025133461       -1.82530439949920
C           45.91068878143301       -2.64711764279847       -0.74334700687686
C           47.15492529433501       -3.22104180785428       -1.15971355288070
C           48.09889476105258       -2.26176370025514       -1.00421305193604
N           46.08237544053500       -1.32602507688766       -0.40229110443118
C           47.42859594657754       -1.10560119545309       -0.49934711462790
C           48.09367248385054        0.02806344274841       -0.02693586139223
C           47.39944394777663        1.14299897238146        0.44883240701023
C           48.03578958694869        2.28806447047348        1.01827130316796
C           47.06932880689730        3.22026776697636        1.19871992448052
C           45.84800805108119        2.64644857869715        0.71856414782013
N           46.05270879840086        1.34355296537689        0.32650440215924
C           44.66419286377453        3.35107283840381        0.55337928480366
C           44.64036381910084        4.80024242269367        0.84741502739417
C           43.75498993613241        5.31059759586709        1.80201399444798
C           43.72789394790765        6.66427543410028        2.08321417186738
C           44.59009180979742        7.51693213170995        1.39967238351604
N           44.56452385810411        8.93993330557213        1.68953381871038
O           43.77605980006883        9.32684341695785        2.51357330504939
O           45.33118843772417        9.64566650514588        1.08605110570844
C           45.47619131383008        7.02996665553746        0.44300397564640
C           45.49898329785066        5.67387279146906        0.17300647314621
C           43.50025851480608        2.73644814554915        0.10881232240421
C           42.27280393073071        3.42687906362332       -0.16203559862241
C           41.33571522116041        2.47985191953007       -0.40105495590127
C           41.99217298289072        1.21339852414828       -0.28137767282170
N           43.33210285447435        1.38390193319886       -0.03465568721184
H           40.25158081983357        0.00306587668171       -0.31403723932948
H           40.25515412906536       -2.59125051881302        0.08201218193897
H           42.16535941801162       -4.49100699125515       -0.07363986366963
H           46.18050859283849       -5.20616821450830        0.71403439839884
H           46.21220123602725       -7.65912015767974        0.33112821316013
H           43.33308635992451       -7.20881931845454       -2.81022273792780
H           43.30771963614225       -4.75474406690456       -2.43799841593484
H           47.27870978163190       -4.22757140113370       -1.52462991381384
H           49.15761162981277       -2.31918000246198       -1.19875504821866
H           49.08814105455252        2.35507107999224        1.24218588056619
H           47.16490672187696        4.20971201898113        1.61514328524765
H           43.09731720786574        4.63469101485255        2.33599740702695
H           43.05013032186384        7.06811362324269        2.82566485339009
H           46.13326443173728        7.71535300432077       -0.07869655942980
H           46.17460488938514        5.28439429696058       -0.57954717489164
H           42.15738458625208        4.49858713462150       -0.16658089289998
H           40.28913956719149        2.60631896626407       -0.62735230053284
Co          92.56845683065480        0.06376948493539       -0.04939097427188
C           95.93590079342776        0.11575865516640       -0.19870523880782
C           95.28734470290894        1.19441994704429        0.36356378406347
C           95.95467928342873        2.32815901322639        0.92749766564226
C           94.99853482527720        3.24829854664138        1.19505160559250
C           93.74956610512479        2.68158628097023        0.77561865058229
N           93.92989700459837        1.39549049360945        0.33641298245855
C           92.55357154426100        3.38465084602292        0.70225976542481
C           92.54430614606345        4.82630999530848        1.03141530391257
C           91.71767095235043        5.31135276430196        2.04967794650567
C           91.70551558714604        6.65797085228225        2.36393791330436
C           92.52317855826306        7.52907356821238        1.64969857735643
N           92.51195469799919        8.94497424715702        1.97360020377618
O           93.24006480531563        9.66698981699514        1.34218540352844
O           91.77635288839997        9.30934695813855        2.85466230513405
C           93.35065912408506        7.06742665158332        0.63005714561454
C           93.35928864121414        5.71812902336042        0.32721387191364
C           91.36785772795227        2.77573903542326        0.31572188787878
C           90.12524946989872        3.46536477593049        0.13812519716106
C           89.17848627421240        2.51781025306772       -0.06569735009238
N           91.19207064669720        1.42174467247899        0.15069321326284
C           89.84570820150246        1.25547914036395       -0.01778109831663
C           89.17810721553317        0.02830159729201        0.01536864084720
C           89.87116246350838       -1.18505168528049        0.04812977830643
C           89.23402461258983       -2.45860617116398        0.16025050819716
C           90.19674535530613       -3.39274571878703       -0.03074805686087
C           91.41630131247760       -2.68346067686344       -0.27788440573297
N           91.21493788364891       -1.32787223955126       -0.15449164378875
C           92.59412644998811       -3.27620686611581       -0.70956349874113
C           92.61077177044082       -4.72893934408561       -0.98536410186142
C           93.50233781392869       -5.56545682363164       -0.30646422858953
C           93.52263048677115       -6.92475338989194       -0.55989539368626
C           92.64721796577130       -7.45218797529730       -1.50491433066138
N           92.66666032682821       -8.87874534481402       -1.77780116496298
O           93.46266596271973       -9.55086601586561       -1.17382620847635
O           91.88720502834566       -9.30098183698855       -2.59279639501847
C           91.75394263964897       -6.63668641280752       -2.19374966890645
C           91.73805769872577       -5.27946035072610       -1.92911714536392
C           93.75856788888625       -2.54184343965848       -0.89906720379406
C           94.98247007748046       -3.08206726049253       -1.41563356690415
C           95.92411706412261       -2.11945272390964       -1.27720267591170
C           95.27322577112540       -0.99085742415874       -0.68418210802412
N           93.93259069437204       -1.23675890431262       -0.51921097795553
H           97.01784361663493        0.13446551010364       -0.25245610016501
H           97.01919005104449        2.39415686933126        1.08548051916055
H           95.11522126279644        4.22647204252363        1.63256521497916
H           91.09478531578721        4.62098054685869        2.60637135047994
H           91.07330271181948        7.04215840611907        3.15537039778858
H           93.97381883711515        7.76689610773787        0.08592625231236
H           93.98878683816228        5.34862972252516       -0.47384188136406
H           90.00420804761301        4.53596775141754        0.16559344954872
H           88.11986797600379        2.64498740020078       -0.22441804320997
H           88.18371636990130       -2.60236640058175        0.35580930370272
H           90.09976057299025       -4.46593366031165       -0.01069741883789
H           94.17031857570014       -5.14432822319721        0.43580763570593
H           94.20535139705987       -7.58175020443603       -0.03458427791084
H           91.08615967234837       -7.07140444779942       -2.92775692140838
H           91.05691983912841       -4.63194251402123       -2.46881371918964
H           95.09290355092237       -4.07170235691738       -1.82828972861166
H           96.97011162225834       -2.15486034538373       -1.53635133604623
C           53.29423961804828        0.05319872593164       -0.00239598195163
C           52.06541728275351        0.05135937106343       -0.00621703385786
C           50.72133700687542        0.04761349433604       -0.01066256304945
C           49.49733974257047        0.04049454408353       -0.01647406905219
C           54.63801641139751        0.05137856385263       -0.00345292706661
C           55.86242449317375        0.04986895713976       -0.00503469949766
C           69.25451206817347        0.02771306693454        0.06042675186569
C           68.02483229460779        0.03266087915079        0.06061551396995
C           66.68229697753263        0.03794695726332        0.05497567895178
C           65.45730242486758        0.04075648146066        0.04375214605804
C           70.59698586267781        0.02191402421638        0.05507907863555
C           71.82201439974415        0.01601605040790        0.04529321321485
C           85.20856921221603       -0.00424190620792        0.03846809149733
C           83.97924833571859       -0.00781607447589        0.04174780591086
C           82.63664448365827       -0.01043865131934        0.04027057032086
C           81.41172484789888       -0.01246200252136        0.03569806201163
C           86.55144446094614        0.00542449571894        0.03416428358752
C           87.77595068447798        0.01409671277913        0.02670409228192
Co          60.66068758446499        0.04360758548865       -0.01458706286010
C           57.26481040064272        0.04691212149512       -0.01246939549753
C           57.94663295290377       -1.12754225625785        0.31897027597623
C           57.29654615051405       -2.33832132096659        0.70802805452774
C           58.25045056777530       -3.30103642646661        0.73025212765411
C           59.47791342322313       -2.67294352079164        0.34507628823248
N           59.29008246339920       -1.32386118831544        0.16187144392548
C           60.65773380882901       -3.35420653438502        0.07407937780009
C           60.65473389805197       -4.83256129928633        0.11130081430261
C           61.51205807899830       -5.51850274501905        0.97715191842253
C           61.51198779584633       -6.90085382967972        1.01701387301754
C           60.65061711991717       -7.60384670769115        0.17978362035237
N           60.64976076075168       -9.05652257850691        0.21474357969802
O           59.88305345853468       -9.63066685011224       -0.51474584259145
O           61.41520662518829       -9.59571800997019        0.97161388033899
C           59.79032831706645       -6.94042150962730       -0.69027371219741
C           59.79409011951510       -5.55774371863276       -0.71850349003945
C           61.84032273737115       -2.69092377285130       -0.22294400909166
C           63.07285776964864       -3.34116090042455       -0.55237177374860
C           64.03070830212774       -2.38236156002839       -0.55370656807026
N           62.03035089304331       -1.33362157278941       -0.10684784903314
C           63.37715169653410       -1.15106222399104       -0.24227134377807
C           64.05619830075307        0.04221715998872        0.02434849980061
C           63.37097280579155        1.23823356859921        0.25996909234272
C           64.01737083123821        2.47477535698623        0.56564075268674
C           63.06358652449696        3.43592844184991        0.50649122331044
C           61.83999263463197        2.78046741920305        0.15544944218736
N           62.02984271321925        1.42110371175450        0.07486591154932
C           60.66418977891614        3.43857491734479       -0.17896810050683
C           60.66785629570465        4.91553846709308       -0.25343205276125
C           61.53771398010598        5.57497601305376       -1.12733141330308
C           61.54403300767546        6.95579977277968       -1.20339813959053
C           60.67717289379049        7.68404713949801       -0.39381589289159
N           60.68249962190212        9.13524109967075       -0.46699523075189
O           61.45496157504769        9.65132085254306       -1.23279415198229
O           59.91247803108000        9.73141409658036        0.24103377000226
C           59.80591443552421        7.04723384799415        0.48517250030210
C           59.80318373381496        5.66578019912901        0.54944152118235
C           59.48415097618241        2.75409331089654       -0.43899203605787
C           58.25581581150786        3.37776638505572       -0.82905451948922
C           57.29747100495968        2.42114921499865       -0.76960018272316
C           57.94685893920158        1.21655093899196       -0.36087763376126
N           59.29268865129730        1.40962484746039       -0.22445053361491
H           56.24391252818510       -2.42639061063027        0.92297542476145
H           58.14254500053379       -4.34317028096224        0.98294032639215
H           62.16863909050027       -4.95918502439396        1.63330758613165
H           62.16829168154967       -7.44119764759560        1.68855483729431
H           59.13205168671048       -7.51135425130788       -1.33399650018280
H           59.13814160293833       -5.02945417981327       -1.40050971293121
H           63.18148963729844       -4.39461406053730       -0.75219165290576
H           65.08743253567954       -2.48465491257666       -0.74042318459483
H           65.06759719115739        2.57884041640479        0.78518713344025
H           63.16888318153153        4.49394251811648        0.68277186842979
H           62.19915818545137        4.99579478503998       -1.76099707123246
H           62.20956564407508        7.47574705795640       -1.88193608008914
H           59.14431740769534        7.63752032573051        1.10768146057552
H           59.13894084524954        5.15836338006526        1.23921089134051
H           58.14978104860467        4.41350053186400       -1.10741641600873
H           56.24282298282730        2.50914512103432       -0.97447514357013
Co          76.61681245389418       -0.00081495605033        0.00754217737552
C           73.22293572397595        0.00980167943380        0.02713031516877
C           73.90510755193387       -1.16706869198183        0.35251136765226
C           73.25639217078543       -2.37685566671966        0.74708903543735
C           74.20821807358878       -3.34195053296330        0.75694422846591
C           75.43294341978462       -2.71617541252718        0.35915088195436
N           75.24560926471180       -1.36605680593081        0.18046543373493
C           76.60762506532927       -3.39839852288199        0.07043035070368
C           76.60150109990769       -4.87680833308875        0.09947770577826
C           77.46942787504352       -5.57031919889041        0.94861234530887
C           77.46435708277406       -6.95285056498518        0.98183749314543
C           76.58719385454623       -7.64838609946942        0.15481687974791
N           76.57940982148125       -9.10120964863150        0.18424418518245
O           75.79596426406762       -9.66843392204423       -0.53272314452278
O           77.35600059258718       -9.64729069234941        0.92469234184879
C           75.71686088136538       -6.97739795258802       -0.69929915751259
C           75.72591575523410       -5.59464392420152       -0.72108975854449
C           77.78858252884292       -2.73536963281856       -0.23640848823908
C           79.01664129347253       -3.38472888208429       -0.58304461330630
C           79.97634220881406       -2.42744717997695       -0.58447960635844
N           77.98187246373374       -1.37959457806130       -0.11160523373807
C           79.32793196231442       -1.19798532271939       -0.25622763350113
C           80.01078044131810       -0.00964563829376        0.02302467749391
C           79.32865585652436        1.18459426763506        0.27731148942818
C           79.97739712666390        2.41737395963877        0.59218088566165
C           79.02607254085812        3.38156820169419        0.53665360971906
C           77.80167551081551        2.73130256801836        0.17970410566204
N           77.98817598768888        1.37253651117949        0.09135903319451
C           76.62739232969751        3.39347593130564       -0.15533470323964
C           76.63619498238648        4.87029367002104       -0.22892513354625
C           77.51315386030934        5.52717009733026       -1.09771889685829
C           77.52415122975836        6.90797211733019       -1.17370773751823
C           76.65470543340122        7.63883077208711       -0.36928965696388
N           76.66351370748565        9.09004788723007       -0.44368769058465
O           77.44329565045649        9.60390354724791       -1.20354411019837
O           75.88972287929684        9.68826282179452        0.25836642225993
C           75.77705703319462        7.00470797043893        0.50523296010262
C           75.76988162646322        5.62327118988617        0.56964865547183
C           75.44602142185417        2.71215368246320       -0.41525923965344
C           74.21735339894938        3.33768701071010       -0.80185641015391
C           73.25694536123559        2.38358219666820       -0.73541179377421
C           73.90554308065565        1.17823256691649       -0.32719339235213
N           75.25199528015931        1.36772043770049       -0.19912056530180
H           72.20604011194494       -2.46272327091667        0.97376280706602
H           74.10075557498446       -4.38420874811851        1.00935191595797
H           78.13802668888512       -5.01691291130937        1.59760821924246
H           78.12857998522034       -7.49904327414727        1.64075521186662
H           75.04664806126856       -7.54259937496618       -1.33573752573451
H           75.06206656691731       -5.06041899813067       -1.39072862789237
H           79.12186256834235       -4.43659601522164       -0.79279507982594
H           81.03129411397272       -2.53016734374158       -0.78077658060934
H           81.02751417410940        2.51789309110510        0.81388342016207
H           79.13398775949642        4.43821356629572        0.71944586611131
H           78.17639384681816        4.94607058993853       -1.72773947752724
H           78.19516937161822        7.42583489068904       -1.84842205268389
H           75.11394338912464        7.59703065637247        1.12419010138360
H           75.10083407204421        5.11799662015196        1.25634448534332
H           74.11256697236981        4.37301065775229       -1.08225669065459
H           72.20160571754799        2.47353688792488       -0.93582110164253
