500
 energy: -811.471065263726 gnorm: 0.000372083178 xtb: 6.5.1 (b24c23e)
C           99.64688562817631        0.63135739110595        0.02537674505198
C          100.25337005308417        0.68954948875461       -1.22312103164734
C           99.59753237316320        0.81445194300797       -2.47940769240338
C          100.55118623709754        0.77688824192412       -3.45808565863261
C          101.82198728514939        0.64418521702831       -2.83032106719199
N          101.59114822561125        0.59372673825523       -1.48444935475114
C          103.07713923145708        0.55140461624441       -3.44484806247189
C          103.10571518281819        0.62854326341678       -4.92387605816856
C          103.62926661185179       -0.42352356131768       -5.67803924796206
C          103.64747605342620       -0.37404622154870       -7.06124311921358
C          103.13937861581161        0.74327626790560       -7.73029616461303
N          103.18007788883405        0.86842644159414       -9.11105166517186
C          103.22627259465762       -0.32773454140244       -9.94144873961460
C          102.62913060087747        1.80857444882070       -6.97818970856215
C          102.60738384076568        1.74712283208706       -5.59752821780426
C          104.28717087093985        0.39220086054543       -2.76399587749351
C          105.58620002506802        0.40723796677084       -3.41151450730123
C          106.50396666448080        0.26744155675289       -2.43220224048214
N          104.43865757978526        0.25015812352059       -1.41789745480932
C          105.76468587112367        0.16639664569287       -1.18932197322822
C          106.39886295380144        0.01156641939696        0.06084970221595
C          105.76107667198639       -0.09499237399816        1.31219437939859
C          106.40404986444027       -0.25250931643619        2.56786388808945
C          105.43658785501168       -0.30564493618095        3.53347942675633
C          104.17174434960985       -0.18456095866497        2.89520736951478
N          104.42039428107560       -0.05821975415841        1.55345105256588
C          102.91335340602394       -0.14663304927753        3.50738965201880
C          102.87809028118245       -0.34951203706415        4.97365891272214
C          102.34478767076516        0.62318511252149        5.82147305733914
C          102.31232557071745        0.43805899222491        7.19311248982210
C          102.81541920949783       -0.73892539713897        7.75518891444548
N          102.75537171947846       -1.00253283221895        9.11533806447685
C          102.68618156178724        0.10180398140861       10.06275382292544
C          103.34141961342397       -1.72244260643619        6.90832757955764
C          103.37778830838587       -1.52551532789486        5.54110382708830
C          101.70671083288526        0.07015590825701        2.83175144516083
C          100.39915488883085        0.06634190616841        3.46848576874282
C           99.49771744818858        0.30134464796192        2.49339403376537
C          100.25143674807845        0.42962609051826        1.25917820362289
N          101.57764185145227        0.28418154509104        1.50077950215539
H           98.56547683867666        0.72589202726725        0.02345967900830
H           98.53049266048353        0.90683228220736       -2.60573041759684
H          100.39116746277196        0.82400054557041       -4.52305641148534
H          102.31665288619163        0.47951066502405       -0.78448752663869
H          104.00921410797177       -1.30389065845587       -5.17109431061293
H          104.05840203380565       -1.20931284372055       -7.61489269701913
H          102.52266138936126        1.55503610488944       -9.46095183939244
H          102.42735528523866       -1.03105453285192       -9.67979512470738
H          103.10997723339108       -0.02078474164919      -10.98083941420959
H          104.19145741154642       -0.82340991063156       -9.83002441557706
H          102.24952999736762        2.68782233013053       -7.48809383275656
H          102.21986517655066        2.58569013443616       -5.02914691472217
H          105.75351139755938        0.53388490805823       -4.46886377678331
H          107.57855169676360        0.23766701474519       -2.51657568716310
H          107.47167172292063       -0.31141011639268        2.70598091123042
H          105.58472694671357       -0.40230722893277        4.59670078126600
H          103.70045943400225        0.06252349509082        0.84858529811808
H          101.96957036779965        1.54952354082163        5.40018960316450
H          101.89366077503607        1.21455786688670        7.82149979013036
H          103.41088368825065       -1.71848057232745        9.40468011262502
H          101.72115009393923        0.60370173592621        9.98223697299736
H          103.48710557592990        0.83029352491113        9.89189829873963
H          102.78207918154777       -0.31016097664272       11.06734310697695
H          103.72059383439448       -2.64563826864274        7.33388502932180
H          103.77779701565262       -2.30141901346420        4.89735955853657
H          100.21709921210501       -0.11092582836224        4.51624835635099
H           98.42366693492794        0.37062739083509        2.56881362323128
C          202.42714193011108        0.65234795648321       -0.06008305211231
C          201.82037409561335        0.76618463816815        1.18444434114761
C          202.47472312840415        0.96836715210904        2.43140075008525
C          201.52236064969810        0.96688418265437        3.41207989087962
C          200.25364622639987        0.77990923211112        2.79405294113833
N          200.48454488276786        0.66199451426687        1.45242096575782
C          199.00049701708846        0.69890791120252        3.41437083062409
C          198.97126172909407        0.85499104124856        4.88712374294688
C          198.46550726761251       -0.16329821500436        5.69768609389446
C          198.44737613436965       -0.03961079226773        7.07624023440742
C          198.93748688249173        1.12032438851897        7.68333697117307
N          198.89580526588858        1.31896012684307        9.05537997875240
C          198.86962020448681        0.16875646036211        9.94913343168483
C          199.42959673158541        2.15177942095937        6.87413001244104
C          199.45147478694943        2.01632158351082        5.49876875883350
C          197.79320857368060        0.48321361748857        2.74436163754401
C          196.49417272017408        0.51100088918201        3.39143263639098
C          195.57878555693762        0.30452459293950        2.42175398928004
N          197.64401697736966        0.26744846604828        1.40780258483942
C          196.31955062386487        0.15015925351398        1.18521628650151
C          195.68770387695145       -0.08005679408702       -0.05448869811027
C          196.32641243918246       -0.24226382404354       -1.29937827540686
C          195.68508421875578       -0.47457158898862       -2.54425235626514
C          196.65244023657681       -0.56087298306287       -3.50756046851840
C          197.91565163246369       -0.38641241658885       -2.87846918708514
N          197.66610460522824       -0.19624481915924       -1.54440310814444
C          199.17281902877141       -0.35816965512153       -3.49366835861941
C          199.21105598579305       -0.63198559448253       -4.94821122561447
C          199.73019450821351        0.30635369099901       -5.84234923894484
C          199.76620899899876        0.05557048791237       -7.20339477528234
C          199.28089499694207       -1.15456452825828       -7.70775095380888
N          199.34585403594369       -1.48295665690726       -9.05345926875563
C          199.40310154864451       -0.42523741938086      -10.05336013726913
C          198.76884169267473       -2.10349502882443       -6.81413989270002
C          198.72897556875182       -1.84127763604978       -5.45800976580332
C          200.37600630972611       -0.08762132156252       -2.83122919064419
C          201.68328964063335       -0.10300134906970       -3.46832918660065
C          202.58103117210729        0.19660341737462       -2.50762275426064
C          201.82562813261268        0.37628133288256       -1.28090132660493
N          200.50193168554159        0.19666398136836       -1.51318891967461
H          203.50682325299559        0.76489693994526       -0.06453650997657
H          203.54013884078094        1.08511367165732        2.55110841384877
H          201.68215172895714        1.07303240412535        4.47282956944627
H          199.76052068429993        0.49898212865483        0.76062217805853
H          198.09976525704059       -1.07583245460474        5.23952500913818
H          198.05057266170542       -0.85040259320270        7.67475400951729
H          199.54184767883902        2.03427017727867        9.36682018903523
H          199.67921974511017       -0.53500661571968        9.72404292391839
H          198.98243099573159        0.53308700288539       10.97022001924244
H          197.91225418760766       -0.34732253984284        9.86666932306218
H          199.79495358081496        3.06336945063564        7.33532104745053
H          199.82472548019632        2.82928557851284        4.88541755671996
H          196.32488136593275        0.69064629097078        4.44075492850316
H          194.50485445632935        0.26149499908201        2.50862604661638
H          194.61847281300595       -0.55809641266146       -2.67736963101257
H          196.50491278002963       -0.71397755281311       -4.56421159606936
H          198.38456393274262       -0.02698647263270       -0.84805874531682
H          200.09128146527868        1.25752623914301       -5.46650503180513
H          200.17365916208013        0.80691409627607       -7.86864594781210
H          198.69989939234586       -2.22034327220949       -9.30833535476862
H          200.36157325799428        0.09216610876215       -9.99586070107937
H          198.59271948333270        0.30049776553552       -9.91944084546038
H          199.31461183489427       -0.88675755199408      -11.03686688572310
H          198.40347665340812       -3.05166199980878       -7.19446594416382
H          198.34033244675044       -2.59109292809849       -4.77744266566416
H          201.86803674985455       -0.33135868755990       -4.50568021081050
H          203.65379389142228        0.27935450635678       -2.58770020577264
C          111.59980336555587       -0.07724516048658        0.09582833194984
C          110.37086097038711       -0.07316250417739        0.09365166966778
C          109.02728908034420       -0.05719674956393        0.08702564502740
C          107.80308340200159       -0.03346829697225        0.07460825767257
C          112.94329301919227       -0.07299652479747        0.09523873117406
C          114.16789254320247       -0.06311225359054        0.08829110297114
C          127.62432932546551        0.01366597423673        0.01049475597309
C          126.39519372775354        0.00287767703189        0.02055486493625
C          125.05216058496683       -0.00877610074371        0.03026973939295
C          123.82737361218125       -0.01679762053087        0.04106393308288
C          128.96738054173869        0.02434883260188        0.00448340162326
C          130.19221368337483        0.03145216903491       -0.00235296949685
C          143.64874580349615        0.02299284023137       -0.00334713885077
C          142.41953184688251        0.01633450094017        0.00013494790452
C          141.07645758966228        0.01003168985821        0.00211319048965
C          139.85162818791667        0.00510387271216        0.00732097383349
C          144.99181147083777        0.03036453739059       -0.00590076045343
C          146.21664633306585        0.03658709934427       -0.00989669132315
C          159.67269090597642        0.02218938113675        0.00289667539961
C          158.44347133243832        0.01548620326602        0.00538574793007
C          157.10040653087401        0.00901625800406        0.00699057979586
C          155.87557766301884        0.00301357658415        0.01083476215727
C          161.01574218048481        0.03043331760387        0.00130256630935
C          162.24056636027319        0.03625539092666       -0.00477983342144
C          175.69621630094093       -0.00636972684080       -0.01679654193259
C          174.46702898092360       -0.00443784575507       -0.00828570426188
C          173.12395308872635       -0.00453684293114       -0.00265654297493
C          171.89914432332151       -0.00410023226738        0.00469034943841
C          177.03927514085746       -0.00930310513472       -0.02483364601926
C          178.26405473375493       -0.01367376987545       -0.03645992624219
C          191.71710156179515       -0.20961396356890       -0.08180174219148
C          190.48819625887484       -0.22019121900457       -0.08370280913925
C          189.14473140779091       -0.22103445546908       -0.08181254816055
C          187.92014510498632       -0.20952892230994       -0.07610718290472
C          193.06043033354771       -0.18277289890932       -0.07457654514970
C          194.28429034114131       -0.14517584018055       -0.06448469556664
C          115.57175765121853       -0.04008472931145        0.08157933543930
C          116.20215658629090        0.01769522986497        1.34040310096682
C          115.55503197159400        0.01715315515088        2.60224758897373
C          116.52152070486106        0.05898868548911        3.57059428242115
C          117.78717192553729        0.09641049994185        2.92611733357269
N          117.54319188441492        0.06424006874746        1.57869379431142
C          119.04827186485721        0.12562351897183        3.53698413608079
C          119.06374021717903        0.19224813131821        5.01708323294440
C          119.68450328041943       -0.80786322845608        5.77108964941048
C          119.68969017209780       -0.75186044242849        7.15174649918866
C          119.07814256927266        0.31410259865366        7.82332015559623
N          119.15769466770917        0.35678759316843        9.20707253819308
C          118.17045644573071        1.11606437009509        9.96280354309142
C          118.47023218859073        1.32542013943905        7.07377551623636
C          118.45870339362143        1.25470464034594        5.69118491499039
C          120.27090949224794        0.09633611282057        2.86298333411604
C          121.56005583651788        0.19861049814199        3.52235203810007
C          122.49344366343934        0.14605422573948        2.54921562606894
N          120.44255028886548        0.00153629405593        1.51490361334430
C          121.77291473174596        0.02396607898264        1.29799739595337
C          122.42378793333521       -0.03506915624640        0.04845674893255
C          121.79350540063579       -0.09228814951150       -1.21054443071742
C          122.44121321401310       -0.09106012837225       -2.47227329740632
C          121.47500258737297       -0.12046805190994       -3.44110690332224
C          120.20873346851360       -0.15234537514713       -2.79728150389076
N          120.45245138116994       -0.12955291748167       -1.44939360327059
C          118.94778184364179       -0.16911600549996       -3.40806703417968
C          118.92969691878525       -0.21714502602745       -4.88881544719498
C          118.31524366965849        0.79636453771035       -5.62690895455758
C          118.29670917014583        0.76402339499747       -7.01061782450367
C          118.88345556919627       -0.30388849678044       -7.69594268625477
N          118.93230219457480       -0.36479237361680       -9.08042540441817
C          117.93048117168448        0.34118171565781       -9.86820397893818
C          119.50535759635503       -1.32044345692208       -6.96043402089606
C          119.53039234459266       -1.27356998248608       -5.57946918069318
C          117.72499174322434       -0.14308908956233       -2.73344590984778
C          116.43603251045849       -0.23835160740638       -3.39416664848293
C          115.50237653441592       -0.19791537271554       -2.42065907814544
C          116.22248755248194       -0.08789429708837       -1.16821150242099
N          117.55319546295372       -0.06233953458917       -1.38483100278226
H          114.48687561544273       -0.02024641347938        2.74330839911367
H          116.37123379179876        0.04960148108757        4.63778043884478
H          118.26375024746000        0.06354400362618        0.86443966509271
H          120.14592170361274       -1.64900199902105        5.26546859762167
H          120.16797616668944       -1.53916112612042        7.72488671140094
H          119.34249411166486       -0.55092490492440        9.61678821354033
H          117.14781906897538        0.83828279374191        9.68282641514310
H          118.32359674053225        0.90739771153089       11.02161227050316
H          118.31099102750603        2.18447242069753        9.79396280918827
H          118.00756384873497        2.17332056895413        7.56378675437394
H          117.99311718784041        2.05169315285492        5.12137775227966
H          121.71007428475905        0.31497523312538        4.58341662930223
H          123.56661441108477        0.19538024025790        2.64219668476873
H          123.50962733416976       -0.06023544158728       -2.61277763533812
H          121.62590937617509       -0.10594397640012       -4.50809505090476
H          119.73159604882295       -0.12554120700208       -0.73547349776968
H          117.86471183914075        1.63496605458046       -5.10720356160945
H          117.82660597957714        1.57556351177359       -7.55232561969824
H          119.10304152721068       -1.30192282071008       -9.42491390402038
H          118.07900150619491        1.41843232829464       -9.78335987135265
H          118.05811462178792        0.05279365382843      -10.91156663574468
H          116.91375955873818        0.09073295180790       -9.54458176358898
H          119.96718019632111       -2.15126691385422       -7.48347928941763
H          119.99822267641311       -2.07877599459928       -5.02344300258572
H          116.28630764339164       -0.34252056410892       -4.45657761323978
H          114.42928431240361       -0.24696031547060       -2.51451335573877
C          131.59582995853023        0.04659039950031       -0.00247115478153
C          132.21918835119209        0.10589104408434        1.25998289471384
C          131.56420673849340        0.11568091385310        2.51775456720958
C          132.52502500025014        0.14812282111792        3.49200224384616
C          133.79502947990719        0.16970791940910        2.85540112641445
N          133.55905057391740        0.13854275280734        1.50642265086030
C          135.05250708502066        0.18385548327780        3.47402597431353
C          135.05970235428612        0.24666717027466        4.95430165585153
C          135.66416242179321       -0.76310166660270        5.70873599079288
C          135.66024987571578       -0.71244709327900        7.08956863549712
C          135.05577585485457        0.35767913425300        7.76096890611369
N          135.12518233010607        0.39380442674421        9.14535200259144
C          134.14032262539078        1.16057301932771        9.89667823139773
C          134.46504359376812        1.37891432759349        7.01107805608740
C          134.46234383507937        1.31358574390848        5.62819696566592
C          136.27898674383749        0.14210635082325        2.80755559008065
C          137.56479733895307        0.23221605491895        3.47507977872251
C          138.50374790724908        0.17325572816697        2.50765705115267
N          136.45813080209260        0.04667035450646        1.46056933949299
C          137.79002809687839        0.05806206077843        1.25194105497051
C          138.44798548861166       -0.00650295433371        0.00643770384231
C          137.82482455346278       -0.06401253181061       -1.25616284113884
C          138.47993649900639       -0.07309543328704       -2.51396259938608
C          137.51925135546293       -0.10209887239857       -3.48836185617316
C          136.24910845355780       -0.12263737225328       -2.85188211954281
N          136.48496363669790       -0.09415334971864       -1.50276559716793
C          134.99169201557771       -0.13452018663879       -3.47033927406768
C          134.98280417294291       -0.19322750856069       -4.95079831245634
C          134.38150405551252        0.81957724489753       -5.70055332395785
C          134.37215972910096        0.77703692394393       -7.08409468606581
C          134.95493333493209       -0.30063351242439       -7.75743421510297
N          135.01290750137883       -0.37226135057720       -9.14102487386716
C          134.02317513289640        0.33673158728685       -9.94122789545629
C          135.56354813030705       -1.31665275760977       -7.01014399102995
C          135.57967536657065       -1.25956739108078       -5.62944663631833
C          133.76510536142322       -0.09429120928754       -2.80367525003033
C          132.47941191610269       -0.18349468479925       -3.47153754884023
C          131.54025167078694       -0.12824185654278       -2.50401479603186
C          132.25374605197086       -0.01546393125759       -1.24804034961887
N          133.58570215645420       -0.00251968911201       -1.45658721939166
H          130.49487915838804        0.09067112693187        2.65235027525533
H          132.36786689231266        0.14231588744684        4.55820320257930
H          134.28398243472793        0.12730204184349        0.79670362613161
H          136.11956656263868       -1.60746844867715        5.20303381613585
H          136.12549365340732       -1.50733381655535        7.66296660960419
H          135.29706446933483       -0.51752096870631        9.55266617635987
H          133.11704371692886        0.89574056004473        9.60679038287132
H          134.28224827567161        0.94497280665574       10.95565059260131
H          134.29433558412177        2.22812459015100        9.73432700731271
H          134.00874944104859        2.23020698837236        7.50116419416684
H          134.01001381814763        2.11805045411872        5.05823199301358
H          137.70909251926480        0.34592166461312        4.53722403176689
H          139.57669996240534        0.21329638800674        2.60733913785630
H          139.54932445968166       -0.04957996320154       -2.64831586806868
H          137.67648387463049       -0.09441342816879       -4.55450775097255
H          135.75999859709015       -0.08200974763979       -0.79310903014907
H          133.93424817382970        1.66563564482539       -5.19018885906502
H          133.91237338080185        1.58828043165425       -7.63502271430253
H          135.17804941517633       -1.31329697404569       -9.47747925144483
H          134.18037229105934        1.41322822925351       -9.86273282208431
H          134.15614999288590        0.03996472571115      -10.98156699186817
H          133.00191443574201        0.09730903160321       -9.62360078115167
H          136.02219211051690       -2.15504232428673       -7.52382676964954
H          136.03742542304943       -2.06415981815150       -5.06421764186065
H          132.33528143721901       -0.29388523880235       -4.53410322499964
H          130.46732630732456       -0.16882422180293       -2.60391345278644
C          147.62025916105452        0.04963577470841       -0.00774372879452
C          148.24214192535118        0.10823309695040        1.25547129959683
C          147.58567682911871        0.11870641753413        2.51248485103888
C          148.54536836487671        0.14984346644455        3.48788646166239
C          149.81617050125089        0.16997043239306        2.85281362286568
N          149.58173362168793        0.13926100117582        1.50352401493529
C          151.07296777356004        0.18256899511570        3.47278526880890
C          151.07909198372954        0.24455679790431        4.95309667812642
C          151.68253320396920       -0.76605919965795        5.70724543901574
C          151.67860016974814       -0.71589556576204        7.08808281105717
C          151.07517592746410        0.35461899160139        7.75982930181819
N          151.14503722811449        0.39043574620574        9.14415450991734
C          150.16164299822478        1.15844973765776        9.89609918356331
C          150.48515719938192        1.37650240262337        7.01024662753166
C          150.48244971242363        1.31165417183397        5.62733331347971
C          152.30013467737484        0.14018823078498        2.80750480558757
C          153.58531126015978        0.22933062617529        3.47637719020551
C          154.52522074864126        0.17040335924191        2.50988111610443
N          152.48058649981868        0.04525169992696        1.46068840048694
C          153.81273538513491        0.05604062916256        1.25341238449565
C          154.47193649045681       -0.00842711228687        0.00859847477251
C          153.85014556786851       -0.06564467708661       -1.25470654906302
C          154.50669849112376       -0.07512129341259       -2.51174154541106
C          153.54712466215773       -0.10408443437551       -3.48725319573201
C          152.27627722610461       -0.12402248736102       -2.85221413011527
N          152.51055920845769       -0.09531464836432       -1.50285260609986
C          151.01952247199353       -0.13545242300705       -3.47208740766631
C          151.01233633476897       -0.19482172792690       -4.95253505090655
C          150.41285972602398        0.81812199485437       -5.70354888437338
C          150.40538808406555        0.77498346923165       -7.08708974109459
C          150.98823046439409       -0.30343901371503       -7.75916107429826
N          151.04819193653694       -0.37567146002035       -9.14263518952928
C          150.06056342612888        0.33419292601937       -9.94465086380951
C          151.59492944537820       -1.31966302805553       -7.01058879724333
C          151.60923105653845       -1.26196817582459       -5.62989853385309
C          149.79232960359627       -0.09409254915860       -2.80672631801470
C          148.50723241646995       -0.18220681806126       -3.47586098173972
C          147.56716650104096       -0.12575002118390       -2.50930224925585
C          148.27951932389789       -0.01341251785828       -1.25260774221587
N          149.61164755120367       -0.00186978577421       -1.45978933772780
H          146.51615464435298        0.09500126482942        2.64577427779775
H          148.38694479440693        0.14415347257990        4.55390289622385
H          150.30754223305982        0.12725129721436        0.79471234145682
H          152.13728024311473       -1.61061575599501        5.20126803484523
H          152.14315779415563       -1.51136645527586        7.66122665249526
H          151.31629704385506       -0.52103027182656        9.55138920075863
H          149.13785114104505        0.89531987612335        9.60648758422787
H          150.30361331255921        0.94223618186607       10.95494100688937
H          150.31726264601571        2.22582580204383        9.73408558808607
H          150.02955035145916        2.22800128930024        7.50061532505894
H          150.03085413206639        2.11672709700310        5.05764555198754
H          153.72861659402602        0.34249242356578        4.53871104268415
H          155.59808848503843        0.20988749897606        2.61067623270389
H          155.57624623087838       -0.05196663357185       -2.64487054209003
H          153.70556705472873       -0.09672982856346       -4.55322249831608
H          151.78473043799448       -0.08276862341882       -0.79408292053262
H          149.96559631865264        1.66477383276710       -5.19417688101002
H          149.94702915536143        1.58636729658442       -7.63899998262012
H          151.21282650442461       -1.31700226711376       -9.47850475666840
H          150.21886481305015        1.41053410405076       -9.86622697996531
H          150.19489112748130        0.03696058392733      -10.98468441867409
H          149.03851200010820        0.09603538046214       -9.62861796174305
H          152.05358409419290       -2.15865645266259       -7.52327567233892
H          152.06559391949926       -2.06665584564037       -5.06368422767569
H          148.36407214870303       -0.29265740842588       -4.53855215788492
H          146.49430730219873       -0.16526421576045       -2.61031496057625
C          163.64416031679457        0.04996524433787       -0.00407417793923
C          164.26747417214736        0.10921623630378        1.25838733301869
C          163.61247478562305        0.12050206126945        2.51617233130926
C          164.57328864066204        0.15316691526159        3.49041366452619
C          165.84335100026124        0.17328381234859        2.85384000851074
N          165.60733255753036        0.14107274861308        1.50484048029718
C          167.10083450765362        0.18698657634223        3.47234163020280
C          167.10873043853957        0.25201884113298        4.95249761254017
C          167.71367783651147       -0.75648400859583        5.70827261408488
C          167.71200557659870       -0.70274267166414        7.08898144734248
C          167.10938210340720        0.36932883349053        7.75897434929147
N          167.18192373491453        0.40894084328095        9.14304363233060
C          166.20017198730034        1.17908540570313        9.89492226965484
C          166.51750459046693        1.38891427768262        7.00772890906813
C          166.51257416816554        1.32049396263343        5.62499882065631
C          168.32723604792838        0.14320589807745        2.80564381822242
C          169.61332584638691        0.23221422533108        3.47277050094109
C          170.55198620198797        0.17054371712043        2.50522025608166
N          168.50590153358442        0.04617108266717        1.45876771961992
C          169.83783313144289        0.05519784152917        1.24981338716627
C          170.49545832669435       -0.01136606715711        0.00432586972077
C          169.87221297907402       -0.06713878427482       -1.25833249854070
C          170.52745545890511       -0.07632038225254       -2.51603752294750
C          169.56684193650375       -0.10281979356973       -3.49059933025666
C          168.29664409129498       -0.12187433233837       -2.85426958393976
N          168.53232580998878       -0.09479760405722       -1.50513759624065
C          167.03916769084469       -0.13166408769367       -3.47276899630946
C          167.03035490103127       -0.18823766215969       -4.95331253834028
C          166.43052524051365        0.82656575731021       -5.70152603235416
C          166.42237844408348        0.78687860833994       -7.08516803170139
C          167.00492310799982       -0.28984584235443       -7.76020132947052
N          167.06479664935279       -0.35838362703832       -9.14387884207635
C          166.07769616098429        0.35427532426636       -9.94403742149966
C          167.61154652299706       -1.30817446014982       -7.01443305496124
C          167.62649142272306       -1.25393980836848       -5.63360572087108
C          165.81282756801411       -0.09094904575076       -2.80588539073034
C          164.52693309038656       -0.17864059361017       -3.47353260957191
C          163.58806036497893       -0.12368048194175       -2.50572860654209
C          164.30194562483132       -0.01234289528277       -1.24979064180085
N          165.63377803896014       -0.00020634027970       -1.45860531221088
H          162.54311851938732        0.09638570144857        2.65073032453385
H          164.41613780302220        0.14843687030594        4.55662634327852
H          166.33232370829623        0.12877577348735        0.79519844134941
H          168.16789080726929       -1.60220324850091        5.20376141672660
H          168.17785189995593       -1.49653082697177        7.66341161491590
H          167.35421282462059       -0.50132045224317        9.55251615385275
H          165.17573255737616        0.91471027397724        9.60874242221763
H          166.34485935159123        0.96637488856316       10.95410810771217
H          166.35505906904214        2.24597440909313        9.72904783726599
H          166.06225486228053        2.24144953707548        7.49662594538197
H          166.05964892950058        2.12387967167523        5.05398422632651
H          169.75812024401370        0.34701864319362        4.53472422965260
H          171.62502457800070        0.20905640897779        2.60458552926552
H          171.59688751388367       -0.05443169561025       -2.65028055576470
H          169.72425361648359       -0.09445226265021       -4.55671029452530
H          167.80721678176047       -0.08204921854403       -0.79563371497349
H          165.98360488392296        1.67199792659042       -5.18983004817394
H          165.96383321774090        1.59969260122693       -7.63481458331068
H          167.22895098842932       -1.29887346411315       -9.48232070671200
H          166.23624127838210        1.43031801480579       -9.86209843647072
H          166.21242215819416        0.06035188031664      -10.98496250872109
H          165.05543517170781        0.11537075854719       -9.62923823229708
H          168.06978998850192       -2.14598039770135       -7.52942717295161
H          168.08289864642271       -2.06017222831668       -5.06963028834535
H          164.38253705082658       -0.28795774346957       -4.53617726467676
H          162.51509020843886       -0.16345899090976       -2.60545988499106
C          179.66770990076088       -0.01607116917701       -0.04339558898815
C          180.29855537186791        0.03946287344689        1.21545089034562
C          179.65069188348258        0.06779918184449        2.47670471123891
C          180.61720278345624        0.09489098391575        3.44544968378935
C          181.88389404002973        0.09307817417344        2.80184453532681
N          181.64002708936914        0.05454649096506        1.45440869657348
C          183.14471671525621        0.09312868221985        3.41345998805513
C          183.16203091671647        0.17503981827486        4.89263044901809
C          183.75684007121649       -0.83265127374898        5.65749768793979
C          183.76600970176847       -0.76063143922333        7.03733023490921
C          183.18492081733419        0.32945040500516        7.69727433399534
N          183.26961203107888        0.38691967637679        9.07992080894426
C          182.30756112692620        1.18353763254725        9.82954203009011
C          182.60218034206994        1.34743105976076        6.93673564634558
C          182.58614929143542        1.26078100144679        5.55513401467944
C          184.36651119960206        0.02206416897684        2.74048946434818
C          185.65769774492932        0.09429331250927        3.39979226983892
C          186.58966556757431        0.00538239507783        2.42799902101617
N          184.53578188913798       -0.09120240035975        1.39376286410648
C          185.86661859845401       -0.10850375826341        1.17750784989497
C          186.51616788076558       -0.19595819353127       -0.07079919730489
C          185.88585081465712       -0.24434887193510       -1.33002206915670
C          186.53468881689923       -0.26619539318503       -2.59090897613265
C          185.56910417185475       -0.26991638971594       -3.56090457490264
C          184.30179825167238       -0.26271076040478       -2.91852697749777
N          184.54444064929174       -0.24392364270259       -1.57051989084121
C          183.04121034749701       -0.24353532248096       -3.53045883867203
C          183.02296324072159       -0.28812091773942       -5.01136925061013
C          182.43937982886351        0.74552567741259       -5.74658710924266
C          182.42326293129392        0.71961760216487       -7.13046419083669
C          182.98099391415383       -0.36167480176475       -7.81897259697265
N          183.03306308197062       -0.41745792594617       -9.20363896107442
C          182.05682836379350        0.32306137796450       -9.99175164345404
C          183.57060189963448       -1.39930558337093       -7.08631152649891
C          183.59372281757013       -1.35898810497476       -5.70505336610223
C          181.81936998700644       -0.18334545656509       -2.85681837832752
C          180.52880495209493       -0.24756047488101       -3.51815848565628
C          179.59592229918388       -0.18289970649520       -2.54518247478917
C          180.31793636334166       -0.08692324862871       -1.29260372849927
N          181.64870568445309       -0.09489050565284       -1.50832620862428
H          178.58185789267088        0.05908499057108        2.61718564933930
H          180.46606043596262        0.09999825391788        4.51253820129646
H          182.36088261851808        0.02775039244517        0.74095936008153
H          184.19454370655120       -1.69179189556182        5.16114563759322
H          184.22411325868222       -1.55366761248190        7.61897379513465
H          183.43170549659354       -0.51992873300442        9.50089887298450
H          181.27627933396755        0.93077264534770        9.55775622812028
H          182.45979990682773        0.98482583578832       10.89039325750350
H          182.47712650140730        2.24523828306269        9.64570077605622
H          182.16306999037224        2.21301475262915        7.41739771675433
H          182.14091423668097        2.06315123575739        4.97667866270833
H          185.81059487457838        0.21718145389944        4.45968197252788
H          187.66371094892068        0.02502085803072        2.52146090639501
H          187.60372684546360       -0.26701600686936       -2.73013510226117
H          185.72168909462778       -0.26284419076947       -4.62773025258199
H          183.82309766414423       -0.21543453687010       -0.85762924171187
H          182.01177430397524        1.59446059087644       -5.22428285730763
H          181.97803365369191        1.54669167630136       -7.66968911716312
H          183.17612357886657       -1.35772335104506       -9.55215551904212
H          182.23667105265000        1.39483954961251       -9.89869793384525
H          182.18163968955946        0.03811742635221      -11.03641025278464
H          181.03134816981631        0.10065213341437       -9.67530880765723
H          184.00924646057936       -2.24105406402632       -7.61185444658397
H          184.03655117545890       -2.17984557446871       -5.15144571488179
H          180.37735257788688       -0.34993586755959       -4.58052398469253
H          178.52196063799690       -0.20561276289981       -2.63947871985725
