229
 energy: -358.257080517016 gnorm: 0.000453060152 xtb: 6.5.1 (b24c23e)
Ni          32.99123978175276        0.02508992403216       -0.02531605170335
C           29.58948439820978        0.10143742859935       -0.07615198847276
C           30.25438526846893        1.19790579706128        0.43192730021398
C           29.58846005091508        2.35837224976735        0.94155839131383
C           30.55563560213667        3.22019798427132        1.33380600998415
C           31.81117853134279        2.58509614766674        1.06019552221810
N           31.61694672238988        1.34130757610422        0.51302440029863
C           33.03839557777194        3.17955569017536        1.30886362389033
C           33.06376017145718        4.55172075427318        1.89047230861833
C           33.01940318707049        5.66724864964695        1.04920036804908
C           32.93926504229712        5.48151833815034       -0.44264932204379
C           33.05041153242048        6.94169519902925        1.60301103825550
C           33.12387701381326        7.12103508797536        2.98059269266424
C           33.18049634063523        8.50614382992403        3.56619421969058
C           33.16672682447466        6.00361672050823        3.80794886961606
C           33.13725302236242        4.71972372534152        3.27620360239694
C           33.18459958627945        3.51493925064645        4.17770695765202
C           34.24616200934160        2.55620939744933        1.03801924162542
C           35.51709586702125        3.16780864925389        1.28245799473811
C           36.45984584677231        2.26773103248642        0.91461780575654
N           34.40822893500575        1.29158155933855        0.51926698844525
C           35.76257616453516        1.11096491114852        0.44749231711604
C           36.41306965311102       -0.03755549227059       -0.00809029871558
C           35.72593376072972       -1.16557928617937       -0.46077789436691
C           36.38502429181997       -2.35286641008738       -0.90621671122830
C           35.41348714494502       -3.22494323191032       -1.26672784190316
C           34.16343393957210       -2.56383416590322       -1.04431779643211
N           34.36660327203484       -1.29872940171257       -0.54138562522209
C           32.93649140860199       -3.14213649353570       -1.32834508018463
C           32.91374130558098       -4.52287108102513       -1.88941338308907
C           33.01372317004819       -4.71632169059308       -3.27083755898922
C           33.14348174318121       -3.52983211654834       -4.18838681945716
C           32.99261422443830       -6.00778762015127       -3.78215571758448
C           32.87443698060967       -7.10933845102384       -2.93913298134481
C           32.84472134579497       -8.49882869284214       -3.51641582259997
C           32.77564874869933       -6.90488286560984       -1.56780387125112
C           32.79437903660822       -5.62094438150053       -1.03368932118381
C           32.68818249324163       -5.40799946277055        0.45288013579778
C           31.73034205765579       -2.49184255568351       -1.11880156604822
C           30.45621601733816       -3.07293656483378       -1.42479431158354
C           29.51776174774385       -2.16181654631662       -1.07677285135822
C           30.21965496832339       -1.02689889834831       -0.55797203348645
N           31.57613167440770       -1.23341577058116       -0.59289049275680
H           28.50612696252758        0.12636407359547       -0.09427394116097
H           28.51746827321778        2.47759009471320        0.98483730350433
H           30.44920431607564        4.20038362408438        1.77009783380521
H           32.01837333702182        4.95964101326414       -0.71014087617796
H           33.77829661177764        4.87933011531512       -0.79593123238648
H           32.95697313088202        6.44245645242654       -0.95598867533150
H           33.01655932236427        7.80778481374441        0.95012484955491
H           32.75512485571440        8.52180148423429        4.56989622113759
H           34.21902289353042        8.83904153599341        3.63218703357232
H           32.63696849105698        9.21490891161025        2.94091868472812
H           33.22339586091058        6.13397587256317        4.88372098881341
H           34.07427613720852        2.91872449717613        3.96589357037638
H           33.20608978661340        3.81322679360664        5.22542728869318
H           32.31147672076141        2.88145546201704        4.01089993086177
H           35.65277587345309        4.15941603528717        1.68282366009848
H           37.53319123672465        2.36192439688306        0.95050457980820
H           37.45462239830664       -2.48559607430784       -0.93117792134334
H           35.51649270161048       -4.22716525206341       -1.65007412252431
H           32.29863192570809       -2.85186736079063       -4.05385005322023
H           33.17683911155917       -3.84564214976771       -5.23066261562496
H           34.05580665942336       -2.97447788723591       -3.96232822181092
H           33.07039326964667       -6.15942359615384       -4.85384030076578
H           33.67648028037184       -8.64357425237617       -4.20761027756437
H           32.90780434148510       -9.25067019645397       -2.72988495213825
H           31.91657314664494       -8.65529060158384       -4.07017844352865
H           32.68400281701846       -7.75695292081065       -0.90220575879760
H           31.78567818721514       -4.84139925493599        0.69036918454993
H           33.54490640235322       -4.83812487669219        0.81707030741755
H           32.65067933776543       -6.36037187120406        0.98087054268743
H           30.31870704437950       -4.05317533833138       -1.85216979613235
H           28.44438458871381       -2.23242667834155       -1.15411285891787
Ni          59.89972572499374       -0.01147029753973       -0.07821490872924
C           63.29938358086594       -0.03352167818510       -0.16923231399709
C           62.63391906345602       -1.18758736610563       -0.52743452112190
C           63.29739238573838       -2.39328959483951       -0.92247894636776
C           62.32862909057548       -3.28344032434168       -1.24101030020763
C           61.07450626943165       -2.61722886404782       -1.04603818320729
N           61.27112419554575       -1.33740985580548       -0.59039972120534
C           59.84817300501655       -3.19242205457843       -1.34066302016331
C           59.81994407505217       -4.58275595394196       -1.87702952167678
C           59.92552487646839       -4.80439840606014       -3.25305407361504
C           60.07420252538541       -3.63809478994629       -4.19334892440017
C           59.89143513060037       -6.10607736533272       -3.73953642084397
C           59.75518614004935       -7.18848544559119       -2.87649957941134
C           59.69641457171831       -8.59186882490743       -3.41661201386074
C           59.65158024778005       -6.95579772447510       -1.50886603460843
C           59.68254342111602       -5.66276583888360       -1.00017028313293
C           59.56899496641679       -5.41832250033637        0.48097437278996
C           58.64389525350095       -2.52980709788339       -1.16250346915891
C           57.37432408866918       -3.10286984513498       -1.49245505485728
C           56.43303137174951       -2.19661101005009       -1.13576816294409
N           58.48291791008738       -1.27460659392000       -0.62141860583049
C           57.12954752541900       -1.07612347320058       -0.58611771842879
C           56.48021525608846        0.03004538626742       -0.03407070563198
C           57.16958860162430        1.11387639801848        0.51332148647144
C           56.51478971536219        2.24123048302561        1.09888951504207
C           57.48748152801110        3.11302221751911        1.45741105954259
C           58.73401911623302        2.51473650369466        1.08662239963523
N           58.52819574808984        1.27573599231687        0.52363391045708
C           59.95779814419697        3.14733558437542        1.23836324559345
C           59.98106554474101        4.52447135767120        1.80800641285962
C           59.83396369936187        5.62935875048956        0.96337177559514
C           59.65238487408882        5.42481100783276       -0.51705349851166
C           59.85609499716548        6.90890538835916        1.50377437974071
C           60.02092595871017        7.10495273744811        2.87210394379766
C           60.05238770142718        8.50065447608037        3.43407440960704
C           60.16597041813544        5.99920816484639        3.70193090036965
C           60.14754961571627        4.70911789413033        3.18287733079740
C           60.30444739330110        3.51640751847010        4.08803553341410
C           61.15956245568625        2.55901751340543        0.87565601643405
C           62.43106328813629        3.20632428170423        1.01342463368011
C           63.36853632272842        2.31462831127019        0.61558058482782
C           62.66885924102819        1.12429962274721        0.23666067813299
N           61.31384939545684        1.28750011335558        0.38237543333564
H           64.38265491073523       -0.03896532747174       -0.20217199572499
H           64.36803965851237       -2.52067883046574       -0.94717399354741
H           62.43324766229868       -4.30032508341475       -1.58374756351059
H           60.99658303133935       -3.09466768086029       -3.97926278327176
H           59.24166151670548       -2.94293632103982       -4.07067188987228
H           60.10014310263720       -3.97426769220726       -5.22945314658279
H           59.97279489047239       -6.27829522085479       -4.80782059882746
H           60.10325745554591       -9.30256334051392       -2.69680626471115
H           58.65889059967667       -8.86907004889784       -3.61764580845272
H           60.25580197977074       -8.67367435264791       -4.34881717807131
H           59.54557346142143       -7.79424749748884       -0.82823169787532
H           58.68133185451986       -4.82128959433022        0.69882856298595
H           59.49927495851414       -6.35883849791151        1.02662748261366
H           60.43866788102006       -4.86650100461031        0.84245356012489
H           57.23843227433023       -4.07515037141505       -1.93769676096990
H           55.36084098110250       -2.26741708133826       -1.22318213240684
H           55.44678311692977        2.33827696896434        1.20962575235687
H           57.38726639358885        4.07832471001415        1.92666680221183
H           60.49171223415760        4.86089461471240       -0.92817930055261
H           59.58423478729014        6.38016102905951       -1.03652435842689
H           58.74127356743205        4.85564439175087       -0.71142276939677
H           59.74193479631914        7.76713524521939        0.84958459645873
H           59.21838948578085        9.08817019154389        3.04729818315079
H           59.99604321807465        8.48551333339029        4.52241795204609
H           60.97895076744670        9.00056082692766        3.14365276532072
H           60.29398839055622        6.14149439462840        4.77002326763185
H           61.20619574716311        2.95925906627479        3.82647530522694
H           59.45289610658789        2.84231812306637        3.97912706979594
H           60.37570695599294        3.82540521024315        5.13045287895597
H           62.56793237342210        4.21350723933426        1.37301064683583
H           64.44018718742892        2.43025281674753        0.57941655119945
C           39.04159744282388       -0.07282264389874       -0.00853176948627
C           37.82099272082200       -0.05888813667827       -0.00708134076306
C           40.39376899285175       -0.08168047242308       -0.00810906474701
C           41.61459830758525       -0.08641886581879       -0.00792424670071
C           52.49913648345842        0.05653832314300       -0.00924343036951
C           51.27846850042568        0.05026139388097       -0.00516817700333
C           53.85152999084480        0.05511628148959       -0.01511330483240
C           55.07212547836077        0.04748310820340       -0.02203380124642
Ni          46.44656048694976       -0.03621298858070       -0.00242330470728
C           43.02212399668082       -0.07906269843484       -0.00508233389093
C           43.68873842108138        0.19332097642755        1.19166848196269
C           43.00997848103311        0.45765068183482        2.42103792987591
C           43.96513513456395        0.58121720744916        3.37378781476691
C           45.22446684895835        0.39542122370735        2.72020040066605
N           45.04462135230214        0.17661692113663        1.37347057955306
C           46.43814945804340        0.39308320951979        3.38907586790062
C           46.43448706345052        0.56643693154015        4.86934901657838
C           46.56209565935717        1.84328469838296        5.42324000768692
C           46.70020743172934        3.04235715184215        4.52348812975189
C           46.55902921304779        1.99111683279629        6.80541380190680
C           46.43058862899824        0.88730898884330        7.64194353059614
C           46.45057371871109        1.05576615464526        9.13718687040568
C           46.30407262469500       -0.37873810624983        7.07908541151036
C           46.30372289698675       -0.55035639691675        5.69997241148716
C           46.16343268138765       -1.92290382428251        5.09761068813125
C           47.65593519644680        0.23990451473185        2.74568409042259
C           48.91338950121244        0.24461970618995        3.42880621477938
C           49.87357792760344        0.15215514240409        2.47764439379471
N           47.84228060761158        0.12413065489023        1.38702953434586
C           49.19953705925948        0.08732630419428        1.21933497746564
C           49.87075258656701        0.03131051369201       -0.00399140566595
C           49.20112182050329       -0.05169261521721       -1.22674937771472
C           49.87607141268731       -0.09429383692420       -2.48554893284868
C           48.91990774437315       -0.23494272273751       -3.43487065841573
C           47.66415754158302       -0.28050680892364       -2.75017119449394
N           47.84648925083338       -0.14677276555498       -1.39265245981150
C           46.45339428547738       -0.48970410522921       -3.39100299923315
C           46.45502018424814       -0.67741348668039       -4.86951800745411
C           46.26111280296461        0.42258721406384       -5.71015441605186
C           46.05275851504518        1.79214175815102       -5.12076634391953
C           46.26137345105906        0.23721048821972       -7.08754324581193
C           46.44999107927085       -1.02607318430050       -7.63883210737665
C           46.46589012564924       -1.20978314384456       -9.13233447916149
C           46.64395421447885       -2.11276888849563       -6.79244445288316
C           46.64842386936294       -1.95097142769474       -5.41188560472644
C           46.85879594103108       -3.13151714978065       -4.50167647593974
C           45.24041846282054       -0.52795006849714       -2.72183611222473
C           43.98757321770982       -0.75663358634488       -3.37438504431185
C           43.02760449517641       -0.64211637583114       -2.42531964659039
C           43.69723870318010       -0.34533309668210       -1.19839946890771
N           45.05264218037934       -0.29807335936614       -1.37799092798411
H           41.93930009869673        0.52821963458799        2.52548256211865
H           43.84472678373658        0.77733808965810        4.42690331296085
H           47.60574737376130        2.95966235896571        3.91931230880820
H           46.75205054887026        3.96196873445005        5.10550309482663
H           45.84968975503246        3.10569060426271        3.84224999117441
H           46.65687213246223        2.98247449946677        7.23563144689392
H           47.46984869863971        0.93336756331382        9.51102430014991
H           45.82119381360796        0.30789283943209        9.62033550094515
H           46.10148270128759        2.04853293367232        9.42182312992145
H           46.20281035721389       -1.24521233919713        7.72441568846133
H           45.26076713545431       -1.97714417586350        4.48596193470217
H           47.01638065269163       -2.14377540212728        4.45327857498738
H           46.10466447414782       -2.68476634942784        5.87430829921033
H           49.02919942368545        0.31518902420834        4.49820340785702
H           50.94458341581906        0.13157475104274        2.59922648432090
H           50.94497503095621       -0.02713462697212       -2.60873770748268
H           49.03743917733473       -0.30650904754404       -4.50402073432892
H           45.13709147545453        1.81274099220527       -4.52653864528022
H           45.97647929023277        2.54550620172431       -5.90418526144364
H           46.88329865224441        2.05292740316101       -4.46236650333837
H           46.11029205798476        1.09063505386513       -7.74046683886653
H           46.14145016551764       -2.21450786897843       -9.40405633295905
H           47.47941003694636       -1.06507572118613       -9.51375367911148
H           45.81410039521000       -0.48417236377708       -9.61960846869003
H           46.79190710079688       -3.10173712672873       -7.21375186320097
H           46.93880638517806       -4.05510773253273       -5.07412275969787
H           46.02756967504556       -3.22372314003653       -3.80034046213426
H           47.77324796047994       -3.00142779180439       -3.91956828832847
H           43.87434782003370       -0.97186757306531       -4.42455930780365
H           41.95923595515863       -0.74136765402160       -2.53021375744875
