300
 energy: -463.020527912267 gnorm: 0.000404148525 xtb: 6.5.1 (b24c23e)
Fe          53.36827619378764        0.05285034708721       -0.03820873746741
C           49.97233898877491        0.12791860315313       -0.10975797688342
C           50.63453409913259        1.24651377852613        0.35354630562016
C           49.97336339077278        2.43788806833482        0.79579782133138
C           50.93679667443421        3.26385739474662        1.26835778808063
C           52.18474700843375        2.57401066192577        1.11385716139404
N           51.98951586593552        1.35307550476249        0.52828362771063
C           53.40001346998088        3.06874281729961        1.56952908719894
C           53.41081751501108        4.38665125935733        2.26395620707449
C           53.65065077871210        5.55496952234701        1.53410779951211
C           53.90347824205161        5.47643835016715        0.05214555976731
C           53.65042031814564        6.78036299323064        2.18895911634011
C           53.41544017365996        6.85943876060647        3.55845271057411
C           53.43393829199390        8.19454600313917        4.25265569441303
C           53.18081271489200        5.69064379571545        4.27417166681095
C           53.17486119113607        4.45350049056711        3.63961316656333
C           52.91521102099356        3.19213778634511        4.41922912231467
C           54.60035297177665        2.39780972935352        1.40289708667087
C           55.85886651886889        2.89218769787329        1.87636405090895
C           56.80629148731607        2.02978742043086        1.43559167467521
N           54.77834405648558        1.22632999241999        0.70612803144756
C           56.12449533861064        1.01129951548502        0.69814466550283
C           56.78461857633443        0.00288972179349       -0.01467883641807
C           56.10467042628748       -0.99353305658268       -0.72554102823994
C           56.76618188177650       -2.04393895708158       -1.43627844149054
C           55.80083896696026       -2.89226821609236       -1.86532841670917
C           54.55113615163753       -2.35373359320286       -1.41757959043384
N           54.75323036597764       -1.17347784690923       -0.74287076918323
C           53.33278773333066       -2.98809540978562       -1.59750565064604
C           53.31553440234799       -4.32190774400282       -2.26075829932241
C           53.11579017861929       -4.41399818090789       -3.64178571523306
C           52.92321404048506       -3.16346414769016       -4.45747705007993
C           53.09670254589017       -5.66465292966791       -4.24592077885719
C           53.27194690576691       -6.82448953279450       -3.49583250456439
C           53.24450833795431       -8.16822452110675       -4.17298805967778
C           53.47036938335169       -6.72040865550137       -2.12412116767247
C           53.49458899857159       -5.47879272872860       -1.49805027163932
C           53.71020299273251       -5.37316169166884       -0.01190581293209
C           52.12356061518372       -2.43626563422078       -1.19478011247397
C           50.85371743425061       -3.07344714857748       -1.39178354508065
C           49.90838622311914       -2.19306428093729       -0.98550042476413
C           50.60264337168093       -1.02399301664206       -0.53462146352905
N           51.95773762403944       -1.19521047199630       -0.64307602724774
H           48.88872037164996        0.15323055815034       -0.13538889833045
H           48.90800184214996        2.59915607525949        0.74871497891592
H           50.83084467539870        4.25022044361899        1.69070416672729
H           53.07344389972771        4.97491703825984       -0.44874916230805
H           54.80954913113847        4.90077714003384       -0.14672323468741
H           54.02172767392191        6.47137817553269       -0.37596212698601
H           53.83364792026991        7.68799053821770        1.62312417713057
H           52.92973517549066        8.13988773524939        5.21750598041579
H           54.46524699364116        8.51210180325360        4.42263402984467
H           52.94427584663732        8.95368537448014        3.64150608911420
H           52.99699316221723        5.74224230191095        5.34235475946043
H           53.74086835298582        2.48980776567468        4.29128051716313
H           52.79915929818173        3.40735183315842        5.48101014617289
H           52.00583321027238        2.70641483748430        4.05994566890041
H           55.98468039963267        3.78819141858625        2.46253135688286
H           57.87374149260648        2.07284297123536        1.58008135341299
H           57.83338133844816       -2.11778851385667       -1.56965612518759
H           55.90864371239849       -3.80431769030880       -2.42994333291879
H           52.02037289095085       -2.63930746479575       -4.13793313807899
H           52.83229428992175       -3.39983924880038       -5.51720583991199
H           53.76806141771783       -2.48627949597773       -4.31970940191841
H           52.94215644511571       -5.73823712830245       -5.31749128156789
H           54.03362035823808       -8.22961582056664       -4.92475424236310
H           53.38785041683473       -8.97284709787079       -3.45197716661012
H           52.28818046586799       -8.31867299481294       -4.67734060879811
H           53.60765365339885       -7.61839905984773       -1.53064592602182
H           52.88509068528825       -4.83145123608037        0.45405378539964
H           54.63014384723053       -4.82414515226252        0.19836613496259
H           53.78220832033734       -6.36083732970652        0.44247767919967
H           50.72219181628082       -4.06387126310822       -1.79710728928251
H           48.83564319397226       -2.30465388284681       -0.98627595596698
Fe          85.97679572176111       -0.02221095015027       -0.08492886179518
C           89.37383518664109        0.00257921968707       -0.16169215552455
C           88.72604101150380       -1.14282731740447       -0.57768113606655
C           89.40280443209126       -2.32443773380121       -1.02241692881733
C           88.44423451033792       -3.19447813968013       -1.41983504143164
C           87.18391570450521       -2.53854958106292       -1.22345205613581
N           87.36839133657772       -1.29581584699506       -0.68146625881857
C           85.96577850041805       -3.07831897273206       -1.61540204333148
C           85.96200257662619       -4.41737767687580       -2.26818662155709
C           86.16250352831597       -4.52366129076776       -3.64725105211091
C           86.37961925335287       -3.28364660472544       -4.47282213463847
C           86.16118452370770       -5.77995121178055       -4.24241266744394
C           85.96570522193777       -6.92961983669314       -3.48448716089661
C           85.94900991282836       -8.28405200313031       -4.14020607629725
C           85.76589179267114       -6.81131670330205       -2.11261887840955
C           85.76194378761187       -5.56576541163559       -1.49637015782912
C           85.54641347863162       -5.44478647794331       -0.01137195732441
C           84.75635263387639       -2.42757933393753       -1.43407744759566
C           83.49769580433103       -2.95587285892357       -1.86871403415021
C           82.54523818476484       -2.09121079166195       -1.44363665867058
N           84.57249050328956       -1.23766347861546       -0.77123660644627
C           83.22355817593481       -1.04060045787481       -0.74926666862020
C           82.55936007441632       -0.02481762068922       -0.05094724802566
C           83.23538606085751        0.98498611187784        0.64468528687770
C           82.56971127677113        2.02396396555607        1.36808845974812
C           83.53042706178739        2.87772226573033        1.79658261891884
C           84.78094379742734        2.35764749885791        1.32946890392621
N           84.58469359970789        1.17986899883077        0.64844747072986
C           85.99145520918761        3.01195155729315        1.48850218953554
C           85.99935833172198        4.33867041426006        2.16597098738298
C           85.77389215858122        5.50036340847295        1.42093978823617
C           85.52008303094749        5.40546863972585       -0.05989414284208
C           85.78649426906125        6.73367135011826        2.06033480071961
C           86.01826280934455        6.82713626731912        3.42963944445352
C           86.04335842185074        8.17421459966834        4.10012920224794
C           86.24062774909981        5.66522186070804        4.16001817083435
C           86.23381824272649        4.42010306103558        3.54097925181124
C           86.47605160004215        3.16557051622736        4.33704892333065
C           87.19922242378634        2.49316269107122        1.03993205222397
C           88.45761265402538        3.16518410265888        1.18826196817214
C           89.40833204011351        2.31971959244764        0.72454536833771
C           88.72892602207382        1.13448059609667        0.29354732615893
N           87.37573194592534        1.26337574378520        0.46710197730107
H           90.45767199645147        0.01163129223090       -0.18905390621243
H           90.47388673514571       -2.45091704774799       -1.02546197774301
H           88.56087017651338       -4.18961001384911       -1.81811419156313
H           87.29964370635543       -2.78211130656398       -4.16607696020713
H           85.55489071148790       -2.58304048420734       -4.33068136574744
H           86.45330774359635       -3.52886271129328       -5.53187917308907
H           86.31729787351603       -5.86256179718529       -5.31306207553221
H           86.36587900858649       -9.04141074796997       -3.47564370751382
H           84.92145176754019       -8.56997728230664       -4.37681610713852
H           86.52145250925740       -8.27469929643836       -5.06792260212846
H           85.61331142985773       -7.70326709814521       -1.51374027875826
H           84.62812044442244       -4.89077023131585        0.19307075161548
H           85.47064125072052       -6.42778064231480        0.45248529613845
H           86.37305798774956       -4.90131492779872        0.44969815379462
H           83.37546147702018       -3.87258604675811       -2.42272150008581
H           81.47650633170069       -2.15391372473454       -1.56986202822675
H           81.50317733849825        2.08551950640338        1.51234825929436
H           83.41869754090085        3.78333323273022        2.37069471344956
H           86.34047002616045        4.88105481383440       -0.55312431633408
H           85.42071675528507        6.39620511186620       -0.50229915451338
H           84.60322502385098        4.84433608869155       -0.25085378881837
H           85.61239649026844        7.63609057544702        1.48339109830057
H           85.22023279713112        8.79592205702387        3.74546594325205
H           85.96714755639250        8.07343426942873        5.18274113936464
H           86.97838180667745        8.68909005630177        3.86816305199610
H           86.42135872844136        5.72792365400826        5.22812899111633
H           87.38314851390322        2.66713626234613        3.98956578727344
H           85.64464758441927        2.46959572208646        4.21168920514993
H           86.58717391357479        3.39206934176236        5.39700587389624
H           88.57845557372077        4.15403240653621        1.60070751437217
H           90.47609233860311        2.46391122669996        0.67629407659348
C           58.18881882823541       -0.01285500176568       -0.01088873734254
C           59.40744729709537       -0.02936182135628       -0.00789779466701
C           69.04977465358664       -0.05028243585588       -0.02298170483432
C           70.27140473931463       -0.04097372257802       -0.02717199762594
C           79.93631790464235       -0.02035372641014       -0.03669905600056
C           81.15506525867529       -0.02230396081711       -0.04373072346755
Fe          64.22686516928147       -0.07477445788272       -0.01011040562002
C           60.81047430006098       -0.04477671602833       -0.00692108743081
C           61.49046022305814        0.39573946889989        1.13677529550542
C           60.83849791564963        0.86086973865858        2.32072073755250
C           61.80012719623579        0.99519536240516        3.26793911210334
C           63.03518906866008        0.61020484262224        2.65551872664969
N           62.83499379541286        0.28853716487619        1.33688831510158
C           64.23199610734152        0.46076508672672        3.34428042504507
C           64.23483146706384        0.67895254190395        4.81699983097992
C           64.63273118056000        1.91349990148110        5.33854075667346
C           65.05363530420313        3.02230787064971        4.41127186713061
C           64.63370949673380        2.10368960098888        6.71524717526760
C           64.24666774745697        1.08367086709031        7.57847436589937
C           64.27484770351600        1.29525776198916        9.06797810157482
C           63.85386823261408       -0.14058728396344        7.04763660922263
C           63.84213895669542       -0.35322744409289        5.67417171191800
C           63.41285162158543       -1.68027442110989        5.10765816062815
C           65.42612235202903        0.11825427417465        2.72739864716843
C           66.66354015653089       -0.06239320334514        3.42361795282223
C           67.62376234041848       -0.20417286915013        2.47654314982184
N           65.62675080820431        0.03665723629912        1.37035393382040
C           66.97119097140184       -0.10885514056076        1.20915211535003
C           67.64962083359003       -0.06145637113315       -0.02036079676636
C           66.96393432135046       -0.03146051365205       -1.24613415646926
C           67.60916974923920        0.04620530061662       -2.51847184325840
C           66.64622205461349       -0.12609774054790       -3.45765075203493
C           65.41358946644490       -0.30199901820083       -2.75197152818207
N           65.61985449073083       -0.19290497511004       -1.39798825436866
C           64.21605799876268       -0.65308624659636       -3.35781742203470
C           64.21317702507027       -0.90035860313007       -4.82596146034680
C           63.82424747311126        0.11616967538627       -5.70336813011765
C           63.40294636151627        1.45706887755516       -5.16408931707592
C           63.83161740240649       -0.12489670906333       -7.07218050309266
C           64.21628494455312       -1.36200559844262       -7.57862745593202
C           64.24038204534993       -1.60397567975995       -9.06356332645873
C           64.59886773742862       -2.36642702177780       -6.69538613233936
C           64.60203677233973       -2.14785325247098       -5.32290666232287
C           65.01703155644130       -3.24017144525030       -4.37367870204620
C           63.01980882842383       -0.77737936257266       -2.66358468762423
C           61.77725627381404       -1.15045075370865       -3.26831950446037
C           60.81868940017805       -0.97775785056171       -2.32425224345078
C           61.48057849299530       -0.50625691088730       -1.14841959795578
N           62.82648348703868       -0.42867437862977       -1.35050365668843
H           59.77930110500817        1.04101081452009        2.40862968737740
H           61.69570147985916        1.31554027442693        4.29196609661000
H           65.97338981307011        2.74934808831784        3.88997476788185
H           65.22843793876045        3.94540860405568        4.96304655003366
H           64.28438426646161        3.20224333825078        3.65838876863966
H           64.93986669937293        3.06255505009039        7.12052778411858
H           65.26128690355289        1.03780104311639        9.46080091345334
H           63.53702370117065        0.66463026015171        9.56440116151547
H           64.07321468330414        2.33759709777315        9.31609817326761
H           63.55099529319077       -0.94209625856766        7.71339331127791
H           62.48969111190885       -1.56550215484411        4.53603995431062
H           64.17627513845227       -2.07163669848216        4.43312345155126
H           63.24093391618599       -2.40524478240310        5.90260912834127
H           66.77006224751244       -0.07240636165452        4.49628862720514
H           68.68074169913213       -0.36032884921532        2.61319604296002
H           68.66400999216172        0.20882933828417       -2.66347863786787
H           66.74785185775478       -0.13841077295558       -4.53077229819937
H           62.47882933611024        1.35954892866610       -4.59078895455743
H           63.23552151074927        2.16657106832887       -5.97382728266183
H           64.16837857757417        1.85769695583291       -4.49735122766838
H           63.53169384341427        0.66443944715604       -7.75363766814014
H           64.03609814565567       -2.65072320722208       -9.28997218019841
H           65.22637324427808       -1.35649973950379       -9.46386484736698
H           63.50263475200224       -0.98204524902541       -9.57096982937042
H           64.89818730051269       -3.33536301071294       -7.08135871863994
H           65.18553502131964       -4.17536386570325       -4.90673612891770
H           64.24720976603665       -3.39997672503809       -3.61682804566040
H           65.93882509276142       -2.96244619714576       -3.85857826720795
H           61.66610942741048       -1.48846065063904       -4.28593239614110
H           59.75609937490636       -1.13833293134073       -2.40880076173520
Fe          75.10534461577903       -0.02510483004573       -0.03215559703921
C           71.67198375425150       -0.03346920390455       -0.02878321650602
C           72.35157228684017        0.12588851666697        1.18980425674329
C           71.68905214989665        0.27373478539746        2.44707760414665
C           72.65132820678328        0.51157253060902        3.37135881405362
C           73.89918971458614        0.51381386983531        2.67036610315962
N           73.70034908646406        0.24726449194096        1.33676137586621
C           75.11028311181678        0.83445283287396        3.26370818013988
C           75.11588574858186        1.18704161157449        4.71068722930263
C           74.87886606217302        2.50443458290079        5.11121689546449
C           74.61884174428648        3.56849544429485        4.07863315077402
C           74.88571954107297        2.81713305176423        6.46610299393898
C           75.12263009536406        1.83792511603637        7.42417187735383
C           75.14209079553842        2.18266474241586        8.88879576171004
C           75.35850253311931        0.52928965149250        7.01262922063997
C           75.35821669083363        0.19362320441976        5.66465776297643
C           75.61479419549444       -1.22319446844965        5.22550859214611
C           76.32009774903574        0.83786856116739        2.58301424924572
C           77.56859908163960        1.19403655917723        3.18553005053086
C           78.52767477607495        0.96244856544180        2.25559991926967
N           76.51150239792274        0.42327934287877        1.28914042177524
C           77.86021852057871        0.46666172081025        1.09308749629271
C           78.53286646404129       -0.02132170569093       -0.03476868022051
C           77.85936497659107       -0.51018467587557       -1.16180616964473
C           78.52590190817844       -1.00411421387839       -2.32566348431825
C           77.56595439263842       -1.23578746531400       -3.25465825678215
C           76.31791646925156       -0.88140229663287       -2.65028880440260
N           76.51032833120647       -0.46853483580030       -1.35599565936242
C           75.10753808377936       -0.87673074568058       -3.32988397615351
C           75.11157118466254       -1.22307125080494       -4.77831558635551
C           75.35410707595135       -0.22510838504057       -5.72743624675444
C           75.61337782820357        1.18900396139220       -5.28123955144286
C           75.35141946006320       -0.55374653282720       -7.07711896829979
C           75.11245043838719       -1.85977783129234       -7.49502198239466
C           75.12830604516387       -2.19663253763465       -8.96151995635033
C           74.87555856354122       -2.84364311339570       -6.54169261972631
C           74.87141216209670       -2.53794963555854       -5.18519911715717
C           74.60995847229526       -3.60648165431345       -4.15757859616781
C           73.89673229462224       -0.56010074292363       -2.73396268935258
C           72.64777750517081       -0.55955241963807       -3.43298620958722
C           71.68612165726827       -0.33042616212742       -2.50590812034448
C           72.35011118653770       -0.18541552123377       -1.24911317032565
N           73.69914207023464       -0.29970300753074       -1.39897249258008
H           70.62355466020281        0.21165047932677        2.59121953096741
H           72.54013163858137        0.67998788230002        4.43023118207718
H           75.44005252874015        3.61004297110301        3.36086377601368
H           74.51180279323430        4.54677534689762        4.54613698283195
H           73.70433843351285        3.34362903246252        3.52628829622889
H           74.70189623164173        3.84030659943377        6.77701254402909
H           76.17164552751194        2.20727838087902        9.25274339930043
H           74.59889741029821        1.43410816155429        9.46710322457671
H           74.69212097731560        3.15933259206830        9.06651954534889
H           75.54406115956054       -0.24068549642470        7.75433790061202
H           74.78759602152383       -1.58740573392649        4.61362185914958
H           76.52307367887029       -1.27271567455400        4.62175266298140
H           75.73169495806205       -1.88210944514827        6.08529342486887
H           77.68205229472389        1.56449374436752        4.19146136952758
H           79.59362026033426        1.09760995854227        2.34152956924783
H           79.59186641560595       -1.13767651038141       -2.41338171989523
H           77.67853029162187       -1.60536294316391       -4.26100916620950
H           74.78875972363872        1.55027897303295       -4.66415977809562
H           75.72750481598239        1.85270053255488       -6.13770196981678
H           76.52395942076491        1.23449042434764       -4.68063717564057
H           75.53679281643257        0.21978477661300       -7.81515254298048
H           74.67041268831323       -3.16865639581861       -9.14435774964821
H           76.15744426055694       -2.22758643766334       -9.32618471483835
H           74.59087178688776       -1.44052768147072       -9.53535334046810
H           74.68924947263243       -3.86480559166483       -6.85769462310444
H           74.50406405616899       -4.58286242869293       -4.62930006656408
H           73.69421338460259       -3.38415965492548       -3.60620306231987
H           75.42966445260498       -3.65070595245368       -3.43827583995635
H           72.53555854409630       -0.72317546187492       -4.49249266490996
H           70.62024465562014       -0.27114564751220       -2.64810785698955
