134
 energy: -222.255353417986 gnorm: 0.000333167478 xtb: 6.5.1 (b24c23e)
Cu          18.87112219366647        0.04659871276207       -0.01129000220651
C           15.46385602558517        0.07478248060042       -0.02129162419784
C           16.09425114913789        1.00015468668172        0.79770516938224
C           15.41880453841610        1.89786919986495        1.68940162970708
C           16.37517104196558        2.64367366462615        2.29775136524798
C           17.64273145891044        2.22105645666551        1.76762628189785
N           17.44172195794661        1.21249980353665        0.87029148905282
C           18.88362598615336        2.76754762074093        2.11044720794978
C           18.89140034607058        3.92297331621903        3.03679434734500
C           18.19382763137030        5.09497024271514        2.72986780886663
C           18.19076166785172        6.16589808509083        3.60336896825334
C           18.87677192358882        6.09255390368726        4.82196936419734
N           18.87812932143839        7.20838026321351        5.64673612545386
C           19.13492721001667        7.05079792541029        7.07194029872054
C           19.58552433438023        4.92763515850675        5.12927701202343
C           19.59023643249802        3.86301875960402        4.24421858363092
C           20.11597287713287        2.30032913449092        1.64467249123173
C           21.37864840305337        2.93574269464441        1.89004529470623
C           22.32959691812289        2.17729539152351        1.28677504636572
N           20.31730920147052        1.17859296389054        0.88442802717117
C           21.65816967616967        1.07393074425163        0.67057448572353
C           22.30433094097213        0.02747844207626       -0.01329623904076
C           21.64516509961294       -1.01541384857689       -0.69036540092500
C           22.30339594112105       -2.13391642245666       -1.29311805666586
C           21.34307407345183       -2.89032757136574       -1.88381627983328
C           20.08810108128695       -2.23629750959621       -1.64763754869966
N           20.30312625228065       -1.10714197627541       -0.90203600148120
C           18.85020958269989       -2.69249737306097       -2.10996380755495
C           18.84486613011364       -3.86845025001653       -3.00966542690442
C           19.56204726334855       -3.85523555572058       -4.20784051028932
C           19.55852303436060       -4.94793911677213       -5.05787642990184
C           18.83128898966678       -6.09413399527779       -4.72434447604577
N           18.83751046277686       -7.23770755465226       -5.51016945603713
C           19.11975803698967       -7.13003531399879       -6.93534188091346
C           18.12121832979307       -6.11823113689367       -3.51772774521047
C           18.12435342675882       -5.01999502155660       -2.67890961935453
C           17.61689280190427       -2.12050729238599       -1.78138541399913
C           16.34585493343629       -2.52543920553093       -2.31676095565667
C           15.39876103213532       -1.75629815944854       -1.72299546854617
C           16.08368068886557       -0.86364980463894       -0.83347452699781
N           17.42773336376864       -1.10000753795555       -0.89516734337108
H           14.37858013052909        0.08421244444638       -0.02495628153051
H           14.35037691894134        1.93189411158898        1.83501910301159
H           16.23998157496536        3.40376765981388        3.05047048920719
H           17.66555558503408        5.17071488300250        1.78565728703801
H           17.65318757658215        7.07308319856740        3.34786064696274
H           18.09952169778433        7.82987284511484        5.46317019438202
H           20.17186032949350        6.75458505075862        7.23448764457169
H           18.47149467341248        6.30297794166198        7.52145189793517
H           18.96866372357247        8.01492021641044        7.55246161821960
H           20.13443273544511        4.84435699824179        6.05928760513701
H           20.12764244988364        2.95722526034192        4.50370594154804
H           21.51480964153455        3.85767863216618        2.43199045779315
H           23.39190572364576        2.35373810938196        1.24582208452839
H           23.36354701746128       -2.32243540180129       -1.25036309022707
H           21.46887516736465       -3.82200583853517       -2.41130597900357
H           20.11499894157110       -2.96494823930342       -4.48753344719585
H           20.12446613662616       -4.90229519639246       -5.98026349162540
H           18.05080423609529       -7.84654714441091       -5.31883291771251
H           18.48189167617622       -6.38016115354298       -7.41728187494978
H           18.93685124900717       -8.10401246132762       -7.38932424067880
H           20.16620751027989       -6.86405596295337       -7.09028345758145
H           17.56685369772603       -7.00950468177937       -3.24282802780734
H           17.57932304514421       -5.05855633921187       -1.74199810164864
H           16.20275676495563       -3.28990119192737       -3.06360194327865
H           14.33095109854946       -1.77237171325561       -1.87604272647999
Cu          29.77424989588008        0.00105147457372       -0.04817373332580
C           33.18150605265592        0.00444388817782       -0.07759330264739
C           32.55110819373687       -0.99676227859976       -0.80192295624184
C           33.22655076581582       -2.06288444428395       -1.48339333135179
C           32.27018524893237       -2.81930025610603       -2.07849856551380
C           31.00263001686663       -2.20969581826030       -1.78179616250100
N           31.20364066238168       -1.11388972720101       -0.99337432586113
C           29.76174404146908       -2.66346126953318       -2.24037499592000
C           29.75397626326366       -3.81959336856812       -3.16583853548407
C           30.45162273926671       -3.77582636216379       -4.37652619174298
C           30.45469411566642       -4.86196003415659       -5.23104686047562
C           29.76861522654336       -6.03516348099982       -4.89360628255562
N           29.76726329543031       -7.08353629031637       -5.80256839766514
C           29.51039131697195       -8.44000212934196       -5.33780965770667
C           29.05979128593425       -6.08084650082090       -3.68974261510106
C           29.05507349612354       -4.98481148129618       -2.84390556015843
C           28.52939732958552       -2.10694307197627       -1.88607502664919
C           27.26672979545129       -2.48500706109706       -2.45268405147134
C           26.31577815334713       -1.73079594891573       -1.84413209320562
N           28.32806016814567       -1.12025631463281       -0.95725328500479
C           26.98719851285755       -0.88872920855863       -0.90176874687473
C           26.34103232351815        0.00697569901592       -0.02973074526821
C           27.00019562668056        0.89526269740314        0.84032379313335
C           26.34196586325632        1.72753385479836        1.80036809553090
C           27.30228554327283        2.46905673040070        2.40965674993864
C           28.55725715685056        2.09587649732969        1.82290677997899
N           28.34223020902502        1.12188039718048        0.88362795204857
C           29.79514368493918        2.64663830965768        2.16720143299613
C           29.80048249924423        3.78125558786556        3.11850189787204
C           29.08327434146087        4.94766448786316        2.84418315791666
C           29.08678779112469        6.01563724727353        3.72509026375614
C           29.81403582276887        5.94024309260648        4.91643492979141
N           29.80779937994673        6.95664821376824        5.86099959769727
C           29.52554755509668        8.32398943310794        5.44496309089838
C           30.52413597177399        4.76797181160910        5.20321322021139
C           30.52101397164657        3.70974100983998        4.31445825728834
C           31.02846098170975        2.20118321269452        1.68067742605189
C           32.29949267332907        2.81204241420369        1.95899858506657
C           33.24659117930693        2.06474747750987        1.33796877814384
C           32.56167927675311        1.00185387304412        0.66096368164567
N           31.21762531235624        1.11364314743339        0.87814596639243
H           34.26678207632413        0.00595534202697       -0.08758586756471
H           34.29497419919165       -2.21244421264438       -1.48478587616569
H           32.40537225636655       -3.71975000476955       -2.65601010463292
H           30.97994725719471       -2.87091764247052       -4.65644743412875
H           30.99232592611533       -4.81058324180700       -6.17209294949004
H           30.54587330959708       -7.04003088702175       -6.44913315331227
H           28.47342480329076       -8.53397440033367       -5.01336495073664
H           30.17373629925953       -8.71551225665322       -4.50985728199347
H           29.67672150459845       -9.11933165732995       -6.17382395251395
H           28.51083150151762       -6.97025370049851       -3.40557107600963
H           28.51761278922140       -5.04037586805242       -1.90334748359890
H           27.13057550971723       -3.21502271967370       -3.23418866244363
H           25.25347248097554       -1.72930928957428       -2.02528016907039
H           25.28181596904826        1.72693466550587        1.99368047454716
H           27.17648441465387        3.18712847580634        3.20378679717577
H           28.53031010471552        5.02635525489396        1.91432624021550
H           28.52082410656165        6.90583086880296        3.47929800628348
H           30.59450283855274        6.90276898801003        6.49692137795534
H           30.16341314538559        8.63070365311295        4.60800136013446
H           29.70845347324076        8.97954623398814        6.29641897288272
H           28.47909758676068        8.41716176826846        5.15158592593981
H           31.07851188592664        4.69417257515088        6.13298710412189
H           31.06606686514081        2.80382820434760        4.55650771466852
H           32.44258294660948        3.70771822086406        2.54204305727907
H           34.31439860406971        2.21762985819281        1.32024212082303
C           23.71381916273133        0.02014895131390       -0.01779490395041
C           24.93154418095568        0.01296027770072       -0.02356269398102
