236
 energy: -407.496017451644 gnorm: 0.000368012333 xtb: 6.5.1 (b24c23e)
C           32.53720934543916        0.08238282706061       -0.00400036024933
C           33.15241452794530        1.30591735268428        0.22708670706387
C           32.50742917523300        2.55929933637229        0.42350628580755
C           33.47399307663152        3.50258780434695        0.63061942841113
C           34.74076394394759        2.85383137335299        0.57637930820282
N           34.49626738640197        1.53460333506335        0.32102333884723
C           36.00667086182208        3.43153490195051        0.72667847385496
C           36.04289953902364        4.88224592354738        1.02717329477559
C           36.67009515995450        5.78527835795958        0.16938288023647
C           36.67346867142216        7.13314024382937        0.49174017993558
N           36.10554556882980        7.61651198187269        1.59200761130794
C           35.50787964541671        6.76253542788144        2.41653929862188
C           35.44809102541964        5.39854898706502        2.17806106339708
C           37.21946223591411        2.74750700621660        0.61592349272037
C           38.51871542299578        3.35949017445186        0.83001141096925
C           39.43518630581386        2.39010643862535        0.63002759729646
N           37.36830092250516        1.42789095938282        0.31515827228176
C           38.69442957200619        1.18603138126375        0.30624454033045
C           39.32645929252348       -0.04282566951075        0.02657569729109
C           38.68548646689433       -1.26652806992271       -0.24461070462559
C           39.32426341416234       -2.49899856056629       -0.54400169720272
C           38.35305948709549       -3.44304007282706       -0.73147887907425
C           37.09002990536616       -2.81578594299282       -0.54475610645138
N           37.34295696002833       -1.49985082759717       -0.26056927068021
C           35.82491939268467       -3.40199202809051       -0.65659701015085
C           35.78678399741823       -4.85392849650188       -0.94825103760800
C           36.35629561571486       -5.78382325772249       -0.07875720255612
C           36.29294270992718       -7.13186923422081       -0.39436391309939
N           35.71572498120701       -7.59070625058133       -1.50015555013754
C           35.17279686461089       -6.71108375429060       -2.33582912196463
C           35.18072488905943       -5.34475426671809       -2.10446578382221
C           34.61076256660903       -2.72136144715400       -0.51676518893861
C           33.30329630405140       -3.35525877177165       -0.58983098287892
C           32.39386646782596       -2.37650230582161       -0.41034683078524
C           33.14441595187625       -1.14826133044866       -0.21587726478140
N           34.47595408279185       -1.39564943377039       -0.27736819319329
H           31.45205334205208        0.09904452359621       -0.01604541331686
H           31.43958947485963        2.70744822420758        0.40105098340309
H           33.32858579472884        4.55750180680069        0.79742885072051
H           35.21780945800229        0.82948469947776        0.21427602452127
H           37.13459551055741        5.43847575412993       -0.74590526210609
H           37.15211406256635        7.85564606424307       -0.16277226801825
H           35.05620780491937        7.18675474130610        3.30851671886724
H           34.96155850540403        4.73872316408697        2.88658467906088
H           38.68482811033908        4.38730082735286        1.10894749423577
H           40.50922380397662        2.45504441617540        0.69873086741221
H           40.39162394563823       -2.63479058862651       -0.61079071876133
H           38.49544672914531       -4.48025627623586       -0.98725225699933
H           36.62404862469354       -0.80295995025788       -0.09582258773162
H           36.82588736858116       -5.45746112174423        0.84161516105782
H           36.72451718629002       -7.87473041711735        0.27012116654945
H           34.71115378167167       -7.11618193620127       -3.23157690312671
H           34.73711082398314       -4.66389764543535       -2.82105324648978
H           33.13029484523770       -4.40803392294254       -0.74467874393218
H           31.31762382114129       -2.44849477024471       -0.39676656665855
C           87.34796260724549       -0.07427762762671       -0.03024133219901
C           86.72973134270232       -1.26701184366729       -0.38256040441981
C           87.37151196765188       -2.47349533368831       -0.78013827241554
C           86.40253649515337       -3.40516035127754       -1.02520560799158
C           85.13747596762403       -2.80053196945237       -0.77511676032970
N           85.38531409768181       -1.51030582685660       -0.40189046169041
C           83.87006488972855       -3.38153006207343       -0.89740502251226
C           83.82834189079104       -4.80956413265680       -1.29088298344473
C           83.18879414500364       -5.22018389363410       -2.46016507402569
C           83.17988090985955       -6.56642230149786       -2.78896822033607
N           83.75379549478291       -7.49988913604494       -2.03659072193149
C           84.36308055613162       -7.11774954864758       -0.91898350833665
C           84.42909053450133       -5.79552895059054       -0.50868942706690
C           82.65954912039787       -2.72014504538245       -0.67742830904259
C           81.35940713883939       -3.36260580408019       -0.74951282360771
C           80.44549051056573       -2.40593800146257       -0.48644702111851
N           82.51402702363025       -1.40572329043231       -0.35335596040416
C           81.18876354192550       -1.18436980746010       -0.24440708621907
C           80.55950047278962        0.04359694882510        0.04547573702880
C           81.20347940224187        1.26058359008807        0.33881033044455
C           80.56815834492750        2.50032466901711        0.61435243070406
C           81.54170453365401        3.42511971265675        0.87262426619464
C           82.80263792446435        2.77482280207253        0.76924896400401
N           82.54636316087593        1.47134438716372        0.43527623520224
C           84.06910487502124        3.34297270181834        0.94260064403914
C           84.11064557200008        4.77041804819894        1.33649122306604
C           83.53200745739233        5.21115757686641        2.52650035660191
C           83.59913301004113        6.55626312051999        2.85351740779688
N           84.18836378624391        7.46155690989616        2.07906267712012
C           84.73993462647191        7.05062274149746        0.94164312069792
C           84.72919985489726        5.72684960395349        0.53174480391266
C           85.28140455163106        2.66634196149983        0.77093244683494
C           86.59005928281000        3.25885397227637        1.00108845188033
C           87.49702885478632        2.30064491339869        0.72451666545032
C           86.74369960467341        1.12059516517925        0.33756659290251
N           85.41294098273411        1.37475348562124        0.38679245523715
H           88.43312590336555       -0.08721412281487       -0.04570957592946
H           88.43896505217208       -2.59749913481098       -0.86904566913900
H           86.54534397988864       -4.42021111851054       -1.35848565501668
H           84.66553139251289       -0.83249225871352       -0.17452933632501
H           82.71893816840353       -4.49283066600009       -3.11130987954448
H           82.69161140520825       -6.90941878255271       -3.69639953434861
H           84.81919454045391       -7.90330398556856       -0.32364518789649
H           84.92480449188322       -5.53311643568141        0.41838537739555
H           81.19120338064936       -4.40652538420070       -0.95863499701770
H           79.37172706265922       -2.49433431534904       -0.44538275848089
H           79.50142151812132        2.65594984563191        0.60878616515468
H           81.40231108826485        4.46837415600268        1.10436076355180
H           83.26327866566729        0.77063971654630        0.27822026257317
H           83.05245728701429        4.50712038673577        3.19619176342531
H           83.16067910980476        6.92176286063551        3.77753360907671
H           85.21129985430237        7.81381360282386        0.32932635138758
H           85.18030760047786        5.44018985898097       -0.41068713359771
H           86.76537278007203        4.26711832586170        1.34007022587866
H           88.57320912021700        2.35393648350627        0.77613202640952
C           44.52803382202243       -0.09021579961633       -0.02545955193454
C           43.29958467681597       -0.08547338305525       -0.01280405031045
C           41.95572117944629       -0.07573267837572        0.00141045303630
C           40.73185187452233       -0.06222829998306        0.01600495026091
C           45.87178406372577       -0.09104016837177       -0.03681834308981
C           47.09593701664288       -0.08464022901843       -0.04569658784737
C           60.55797803412180        0.01374503289198        0.06561107020676
C           59.32915620862985        0.00503917899942        0.06787714448195
C           57.98605533588319       -0.00510008486430        0.06225029353613
C           56.76168822924738       -0.01700963736169        0.05215388385642
C           61.90106072507908        0.02233183940159        0.05697078671737
C           63.12540960307463        0.03088082850883        0.04247303179832
C           76.58661797634875        0.09613525836709        0.02485465098457
C           75.35817717560185        0.09936320800933        0.01102423010074
C           74.01457574711858        0.09695367098714       -0.00455218910267
C           72.79045389991576        0.08925916703656       -0.02009258910934
C           77.93037596459736        0.08525623278472        0.03578719596791
C           79.15429571947210        0.06797369586392        0.04418529138153
C           48.50049553982983       -0.07909882048256       -0.04722411690832
C           49.13143568597366       -1.31097819756947        0.21292201800892
C           48.48594295173432       -2.54301308379546        0.49316706044282
C           49.45350335270768       -3.49247473527298        0.67791613968928
C           50.71874726472301       -2.86746676037566        0.50750190801980
N           50.47328002045082       -1.54818708355564        0.23592425163956
C           51.98086860721128       -3.46358729726328        0.61881845341990
C           51.99859729566341       -4.91971101373438        0.89772721134781
C           52.57526322095824       -5.42605704566561        2.06196804076901
C           52.56254802467814       -6.79422341891209        2.28261904243910
N           52.02635425114401       -7.66065717132201        1.42915001751024
C           51.47783376774513       -7.18678701857191        0.31519859118864
C           51.43672722888973       -5.83562908333044        0.00898203159387
C           53.20428792458018       -2.80420912598258        0.49253230968075
C           54.49335568750382       -3.46917013482318        0.56077547598491
C           55.42735232243201       -2.50950928254753        0.39823071806942
N           53.37646709667910       -1.47132003162143        0.27306736064522
C           54.70734130977026       -1.26362353338006        0.22208407932791
C           55.35798129257901       -0.02747470756722        0.03269497090635
C           54.72605018246074        1.21276316011200       -0.18315299326925
C           55.36977418424055        2.46557499248712       -0.35356404091015
C           54.40226187306584        3.41147234463170       -0.55628929601377
C           53.13926164232691        2.76028698491903       -0.52274020624183
N           53.38542798271671        1.43463649839595       -0.28432172831718
C           51.87810075939221        3.34836688718202       -0.67739729793789
C           51.86244618340163        4.80284162975278       -0.96557541468671
C           51.26129512188315        5.70935409515873       -0.09331447469549
C           51.27756209900342        7.05961853451704       -0.40567989002730
N           51.83924573709961        7.54115800926594       -1.50984175215547
C           52.41160262965029        6.68348671180605       -2.34840175869846
C           52.45173956235696        5.31703579641773       -2.12013489482350
C           50.65492246855253        2.68297038594795       -0.58460653565789
C           49.36773297367146        3.32039342424876       -0.79725628369454
C           48.43343871754121        2.36434000800405       -0.61626449950880
C           49.15170154269005        1.14398735600019       -0.30557795185985
N           50.48208431361789        1.36204065130967       -0.30269661333208
H           47.41767662919639       -2.67603882172070        0.54960691465534
H           49.30555836236114       -4.53201345337304        0.92055475265475
H           51.19256778391485       -0.84934796488479        0.08260687110100
H           53.01320481493987       -4.75586898640883        2.79194984283620
H           53.00110950226593       -7.21167681571255        3.18424121555458
H           51.05126663419981       -7.91935201986586       -0.36374195535015
H           50.98949574436171       -5.49632303899449       -0.91780428908535
H           54.64137149972333       -4.52769851524591        0.69995176764805
H           56.50086646291245       -2.60938360200562        0.38679919849292
H           56.43664265978199        2.61603002952294       -0.31883433969562
H           54.54835924658798        4.46862778441084       -0.70623510250363
H           52.66720617607570        0.72393093444454       -0.19328466549698
H           50.80166437021852        5.36338876435851        0.82475604110690
H           50.82032392185241        7.78538410646954        0.26044053834427
H           52.85886794830542        7.10667640312697       -3.24308269717327
H           52.91962272569484        4.65399210281193       -2.83816781464607
H           49.22141234107268        4.35520666058570       -1.06087908532726
H           47.36098708963121        2.44826603019632       -0.68916112746167
C           64.52910837038166        0.03651179459251        0.02252502937324
C           65.16388628782111       -1.19277917818022        0.28706900988295
C           64.52312957766581       -2.42026105646947        0.59637471255233
C           65.49282296033950       -3.37172240147945        0.75883314836600
C           66.75426287414268       -2.75238507540452        0.54544668185216
N           66.50500614546277       -1.43358588993144        0.27435177648623
C           68.01691271177246       -3.35339214706696        0.61561864795213
C           68.03741303790412       -4.81092615737101        0.88657251330512
C           68.65052566855924       -5.32757261967064        2.02738572786633
C           68.63933691262611       -6.69722971730090        2.23897408472651
N           68.07125617621459       -7.55557444026274        1.39808936564623
C           67.48736252812148       -7.07182695860758        0.30657833266538
C           67.44167573177943       -5.71843863625270        0.01126222125837
C           69.23819365106637       -2.69742578637773        0.45419714519864
C           70.52694177443549       -3.36570984992378        0.48465038923012
C           71.45890554722394       -2.40662137782339        0.30762667223199
N           69.40772143432970       -1.36373647383555        0.23833276214792
C           70.73769281791068       -1.15802255750139        0.15801165416488
C           71.38611174186916        0.07932083548337       -0.03017637675771
C           70.75211983434620        1.32052571321811       -0.23207007887268
C           71.39382071656348        2.57317445951799       -0.41121191545560
C           70.42398293735674        3.51922051132022       -0.60195771068211
C           69.16133960817675        2.86841940741328       -0.55129534639490
N           69.41018930947830        1.54290507475646       -0.31588326055585
C           67.89806299740977        3.45640644469569       -0.68969638133112
C           67.87740535480695        4.91102041632546       -0.97617195649783
C           67.28369385113282        5.81402684808511       -0.09506925148918
C           67.29426695634760        7.16517202858030       -0.40336162528207
N           67.84377165436082        7.65099518532399       -1.51178383292857
C           68.40868825841814        6.79676546828859       -2.35883589140833
C           68.45353737315146        5.42963855899929       -2.13531762120065
C           66.67647391139357        2.79121421396924       -0.57789745856330
C           65.38653178829564        3.42714419714872       -0.77818471466883
C           64.45469908609422        2.47292015352922       -0.57595078392692
C           65.17709079129800        1.25538619665629       -0.26369098929985
N           66.50722865536216        1.47256841350710       -0.28281564806875
H           63.45664946885171       -2.54921598153696        0.68610000440952
H           65.34901779371498       -4.40896782124680        1.01350552553650
H           67.22157734955299       -0.73839562090412        0.09416042360682
H           69.11548471010161       -4.66434793334158        2.74692951218327
H           69.10617549991485       -7.12266770324013        3.12247302571899
H           67.03510249892788       -7.79799183885596       -0.36253393198597
H           66.96471908926726       -5.37074776878896       -0.89742576855438
H           70.67591242890227       -4.42560271707495        0.61177410859200
H           72.53156848441719       -2.50874452521589        0.26942491671053
H           72.46116758763033        2.72309753156621       -0.39165784562923
H           70.56843621603673        4.57617243790435       -0.75497062107664
H           68.69309047083630        0.83241859249749       -0.21478020460175
H           66.83424743772098        5.46424144522880        0.82658487179673
H           66.84259493905800        7.88804889974661        0.26965376998939
H           68.84589235347403        7.22343487475187       -3.25682188864144
H           68.91473398001233        4.76979665077455       -2.86057227697298
H           65.23672373792579        4.45952977068219       -1.04930379697332
H           63.38131627361923        2.55639365336568       -0.63443791587407
