126
 energy: -218.917785096993 gnorm: 0.000648699113 xtb: 6.5.1 (b24c23e)
C           12.88004141027015       -0.10532006494195       -0.11448943859426
C           13.48951086977476       -1.31870283570646       -0.40636897552452
C           12.83762015954159       -2.54144306460909       -0.73128541868656
C           13.79902905158515       -3.49266418575503       -0.92555834882734
C           15.06941184561717       -2.88293256116618       -0.71812256634454
N           14.83224568921764       -1.57188839008567       -0.41833289464020
C           16.33257822263920       -3.47673709870750       -0.82449162755983
C           16.36082235785748       -4.92728246093925       -1.12565481650460
C           16.97873538670541       -5.40057579998665       -2.28738777089519
C           17.00003652501330       -6.75382659207521       -2.56455998613685
C           16.40903274405104       -7.66647704804973       -1.68423691530059
C           16.44669083638155       -9.10586838250827       -2.00120216630099
O           16.95779651696331       -9.55964791214117       -2.99297712819691
C           15.79330752261942       -7.19530996166347       -0.52213684119870
C           15.76671664587443       -5.83942734907697       -0.24849038483918
C           17.54925306915805       -2.80840453123647       -0.66489609109238
C           18.84715152991954       -3.45596068345424       -0.73213639740948
C           19.76668097746501       -2.49015139360943       -0.52871154103399
N           17.70184928896402       -1.48132870165271       -0.40320109658090
C           19.02924722857524       -1.25822933171706       -0.32405457821273
C           19.66491345308725       -0.02527553779539       -0.07497905755243
C           19.02959174779080        1.20267634393610        0.19045253599063
C           19.67490992781605        2.44484406370595        0.42967109310258
C           18.70901963128311        3.38421892027443        0.66239572538197
C           17.44300167727605        2.74094950267290        0.57913884559552
N           17.68842796133603        1.42674454330722        0.28244325451444
C           16.18047605420888        3.32492604856378        0.73219010351091
C           16.15041352918551        4.76088789388062        1.09312369285003
C           16.74181428569478        5.20179225475890        2.28144901327848
C           16.70815907364632        6.53952668446824        2.62399754083907
C           16.08872432057586        7.47004920991127        1.78297100471894
C           16.06731216116800        8.89204699539169        2.17101964364778
O           16.55450535809593        9.31529247400404        3.18793668903338
C           15.50214092635658        7.03203936752734        0.59313800496811
C           15.53036755069718        5.69106499279447        0.25389873047281
C           14.96307118350804        2.65282915635474        0.57636483594899
C           13.65786276897581        3.26077689158020        0.78519580140043
C           12.74532470504104        2.29908374737533        0.54120823292099
C           13.49179076378780        1.10117873773968        0.19839719722572
N           14.82402817650729        1.34967129207353        0.23735232496540
H           11.79480833925958       -0.11233172503831       -0.12695977044143
H           11.76898534630677       -2.66288144398694       -0.80831788331288
H           13.64796750477531       -4.52434272484940       -1.19905938460590
H           15.55786776110557       -0.88722259271685       -0.23401161674683
H           17.42631566806648       -4.69505940331944       -2.97816513177004
H           17.47213095094614       -7.12836535347441       -3.46659202108772
H           15.95894036320739       -9.75281303057083       -1.24086339474321
H           15.33615569446157       -7.89649966168217        0.16859902926320
H           15.30004542490044       -5.47846003863832        0.66129106257318
H           19.01106202045818       -4.50816315074364       -0.89881839917922
H           20.84099551187001       -2.57849787927260       -0.50397797193051
H           20.74270782589538        2.59234363222115        0.41815752647386
H           18.85711980056857        4.43273626701538        0.86249538404247
H           16.96563556113334        0.72755398913852        0.14707374574720
H           17.21017319816735        4.48161490448126        2.94284108782435
H           17.15768301737556        6.88748270213221        3.54786726449792
H           15.55839835832232        9.55661914323892        1.44066026976071
H           15.02392884435434        7.74790503156525       -0.06755145194906
H           15.08596456664350        5.35676889602714       -0.67675565668669
H           13.48791344630277        4.28079690309299        1.09001005568059
H           11.66956968773465        2.36028153875524        0.59126313696924
C           33.05544878230135        0.15375026055942       -0.04102097769793
C           32.44583316486403        1.32474279704701        0.39032919026633
C           33.09734339557576        2.52331656369084        0.79598237925051
C           32.13578449503282        3.42162316005078        1.16381484569612
C           30.86571065374243        2.79769216550216        1.00160937556259
N           31.10316149396606        1.54059158964015        0.52390258048901
C           29.60253374614933        3.34973225087816        1.24491304173163
C           29.57433953477452        4.72364703910591        1.79892833897364
C           28.95367560648476        5.76125378489716        1.09637106481747
C           28.93256265433110        7.04096931240897        1.61640655882219
C           29.52637562587361        7.31261572326394        2.85368644539577
C           29.48818141270898        8.68598043710159        3.38856531274126
O           28.97596608428699        9.61354330773761        2.81582175068324
C           30.14485084326396        6.27660342711736        3.55770957442108
C           30.17130309424162        4.99666504478552        3.03323355316395
C           28.38591569563722        2.70439095744722        1.00858053197972
C           27.08807757689004        3.27990670296043        1.31324783694966
C           26.16855508573428        2.36342985538320        0.94689724456688
N           28.23328630578310        1.45517648041826        0.48995936119369
C           26.90593540756017        1.22514724416494        0.43309751225827
C           26.27022307442758        0.06113572010870       -0.04382048827161
C           26.90568732613486       -1.10731157013201       -0.50486736891717
C           26.26058590189178       -2.27353904736111       -0.99522497570633
C           27.22669835358313       -3.18401065111302       -1.32264640421600
C           28.49259710295607       -2.60228613225095       -1.03527562437927
N           28.24692713887180       -1.34437828499896       -0.55280932308788
C           29.75522550656606       -3.17258833529275       -1.23275897936200
C           29.78526298652797       -4.56765135657966       -1.72884140609830
C           29.19510566602140       -5.59389205220272       -0.98399716483017
C           29.22870984388012       -6.89697174043371       -1.44107016625184
C           29.84677820157965       -7.20447506939734       -2.65773435259051
C           29.86789292649928       -8.60282092903612       -3.12395454551139
O           29.38180836828673       -9.51934063393219       -2.51205038254881
C           30.43222206275755       -6.17980000122387       -3.40540976369367
C           30.40402759165239       -4.87589652890866       -2.94381148071454
C           30.97259511161096       -2.52621542972828       -0.99150594862650
C           32.27802784995759       -3.14669549092350       -1.15801590955656
C           33.19046373809775       -2.21032594150976       -0.82977469361931
C           32.44378561888173       -1.02421152376219       -0.44855118831950
N           31.11154060918984       -1.25378536130013       -0.55083837986741
H           34.14064060178254        0.16747990396688       -0.05001285504639
H           34.16579538062865        2.66843363112824        0.79648557710001
H           32.28648902505051        4.43218013984285        1.50736611964480
H           30.37787491186995        0.86765039527053        0.29946965295895
H           28.50385518734480        5.55693145749311        0.13140170455873
H           28.45823023608774        7.85244106594152        1.07484954315169
H           29.97935184062520        8.80314645351925        4.37827520106632
H           30.60431444570918        6.47737440769021        4.52021470895060
H           30.64017249004894        4.19212517769574        3.58880486618578
H           26.92417024836687        4.24754045329987        1.75888900678401
H           25.09430320636096        2.42300398117164        1.01731126835845
H           25.19281150627394       -2.38995260264995       -1.08680561488485
H           27.07884089561813       -4.16739266305570       -1.73791774335793
H           28.96945334945118       -0.68728396356367       -0.27751754251136
H           28.72774106827544       -5.36176053030186       -0.03363253246221
H           28.78012018805619       -7.69916326751287       -0.86491381733408
H           30.37630072371854       -8.75041547261303       -4.10055864984424
H           30.90943919227688       -6.40872826154627       -4.35277529059509
H           30.84745768222166       -4.08135810485332       -3.53323779253221
H           32.44826219622841       -4.16423881649396       -1.47084156246538
H           34.26632355386669       -2.28787628502882       -0.82492836676327
C           22.29289740942320        0.01577567204580       -0.07423445041402
C           21.07105444474417       -0.00752088924493       -0.07707771236237
C           23.64221649664709        0.03231669855045       -0.06769112989245
C           24.86414305464488        0.04856543818255       -0.05762867272470
