126
 energy: -218.921699333734 gnorm: 0.000296279383 xtb: 6.5.1 (b24c23e)
C            7.32205202383588       -0.06216465419817       -0.00431100066508
C            7.94612916750154       -1.30149736481435       -0.06940387744068
C            7.33148476199014       -2.58472387350342       -0.13980340363238
C            8.32309074558106       -3.52366381636173       -0.19018947078113
C            9.57453769597616       -2.84402160991737       -0.15163107693648
N            9.29602030558789       -1.50980649414236       -0.07927275010136
C           10.84316317809049       -3.41153896187304       -0.18051553403743
C           12.06260236743614       -2.75108506686576       -0.14287003245738
C           13.34140845007437       -3.43845648129410       -0.17754009364209
C           14.29036924272125       -2.48096598366058       -0.12505785881860
N           12.25499108619483       -1.40561116568529       -0.07091662343446
C           13.58733684215390       -1.21224625665047       -0.05887307592664
C           14.24207654130482        0.03579383997758        0.00613085305606
C           13.59225171042331        1.28316341459560        0.06904710229245
C           14.20166636632141        2.56540084752255        0.13375353039053
C           13.20630621108427        3.50217841071209        0.17972969821506
C           11.95900766768322        2.81812580231101        0.14440123689496
N           12.24488735777442        1.48101745272223        0.07793708899349
C           10.69173674894250        3.38642553433217        0.17126673666765
C            9.47119070025760        2.72329354607818        0.13723310611760
C            8.18612429573854        3.40451343250768        0.16989031854544
C            7.24316971194763        2.44219831772258        0.12190332417799
C            7.95307571497867        1.17447522405810        0.05935759885028
N            9.29123468881761        1.38336436344077        0.07074513758983
H            6.23721583482738       -0.06954985956963       -0.00519430358486
H            6.26614930135807       -2.75204962131972       -0.15018613647694
H            8.21175366595600       -4.59476710786003       -0.24913504396265
H            9.99114687372412       -0.77206077169468       -0.03863250379941
H           10.87414116610201       -4.49484450442893       -0.23923262800772
H           13.46269757132101       -4.50884069523277       -0.23433002407785
H           15.36311408648043       -2.59146902940679       -0.12922473758944
H           15.26625088800314        2.73612323530031        0.14322941690287
H           13.31457780179871        4.57372846211959        0.23335016019671
H           11.55228157163101        0.74044658146571        0.03999349730254
H           10.66202326941674        4.46995038428909        0.22488838870058
H            8.05936721955228        4.47465985390281        0.22232050765785
H            6.16924918262288        2.54542889217733        0.12613860282054
C           51.62906380506273        0.05708432460393       -0.01287132763390
C           51.00420788118472        1.27781598324860       -0.23427565179603
C           51.61806313141633        2.54269053191011       -0.46384746758419
C           50.62588144229127        3.46729688677624       -0.63150279212601
C           49.37485908032583        2.79678147333163       -0.50958471243519
N           49.65419199364418        1.48220957548121       -0.27121765063618
C           48.10586520069478        3.35522716842164       -0.61009742846035
C           46.88690975044636        2.70361136061963       -0.49099062569861
C           45.60760571578280        3.38016578895065       -0.61206343022860
C           44.65935809191730        2.43604566059413       -0.44025851658639
N           46.69551941274602        1.37762680403205       -0.25091615727367
C           45.36332263059744        1.18620715576189       -0.21517393452400
C           44.70939217734764       -0.04421286659514        0.00620199154090
C           45.35990963685607       -1.27317516521793        0.22645018174807
C           44.75131064383005       -2.53715491878213        0.45376871635138
C           45.74726928739413       -3.45960107297311        0.61980183249897
C           46.99413921085907       -2.78463360624219        0.49862396830199
N           46.70740858533077       -1.46723595769158        0.26147579154876
C           48.26179922495866       -3.34359557734818        0.59992201890874
C           49.48187110534558       -2.68913669805266        0.48264771494438
C           50.76742951716440       -3.35923165428231        0.60448980872980
C           51.70968867214509       -2.41029426783995        0.43367163854271
C           50.99887249719242       -1.16183588194175        0.20760909464925
N           49.66086416190300       -1.36876848668965        0.24429344683913
H           52.71389543384866        0.06512749869347       -0.01406079339327
H           52.68329521558569        2.70826316404396       -0.49404340506490
H           50.73654310773658        4.52285089687275       -0.82307056694326
H           48.95949042136792        0.75483584614578       -0.13914512408414
H           48.07412358007779        4.42271080019972       -0.80355502235455
H           45.48551536964579        4.43486211368540       -0.80275841501240
H           43.58653864714708        2.54427560858202       -0.45876843991594
H           43.68683150345807       -2.70611670612108        0.48410337235224
H           45.63968357209720       -4.51561342092978        0.80976567292814
H           47.39956364666155       -0.73696841497250        0.13025786386650
H           48.29228889502382       -4.41122395727694        0.79234782397221
H           50.89496951708658       -4.41348872791289        0.79504076227621
H           52.78368422979077       -2.51107114879832        0.45257111247104
C           15.64564023325174        0.04902285024739        0.00589939477191
C           16.87055362858837        0.06088095720907        0.00554184628575
C           18.21254558395955        0.06903618389049        0.00582467790161
C           19.44364018806646        0.07435407256583        0.00337877733116
C           20.78087067636564        0.07579525619174        0.00286391016010
C           22.01204714182618        0.07227851938007        0.00011232989197
C           23.35378794659771        0.06451344236437       -0.00173086493934
C           24.57892872464497        0.05296359615409       -0.00111120425567
C           34.37242389252501       -0.05856306855972        0.00156565946157
C           35.59759383548628       -0.06724455088864        0.00431448729216
C           36.93934688151762       -0.07271331707441        0.00581489128071
C           38.17053670077663       -0.07594702353855        0.00818060218104
C           39.50778069069460       -0.07573097042202        0.01001773463539
C           40.73888208062831       -0.07362260886493        0.01166944010537
C           42.08088900830286       -0.06759483703289        0.01072398729155
C           43.30581462506730       -0.05765044353075        0.00887140085204
C           25.98144019304507        0.04159564794369       -0.00198975261183
C           26.63425710297490        1.28976567820488       -0.01639155193102
C           26.03296269670091        2.57607011805747       -0.02984398639859
C           27.03557090952468        3.50747770956236       -0.04373607885331
C           28.27708848426888        2.81430028025051       -0.03905572916024
N           27.98302068369406        1.47831949161210       -0.02187842237317
C           29.54808987032622        3.37875022906331       -0.05103811333912
C           30.77141700727682        2.72641030685272       -0.04549774101917
C           32.04458173935127        3.42486979569133       -0.05975948243603
C           33.00155558281980        2.47388027340512       -0.04599792405532
N           30.97481884082784        1.38083111045489       -0.02446581553620
C           32.30893327979896        1.19861301815246       -0.02342952082444
C           32.96989312669749       -0.04754397957435       -0.00077465024943
C           32.31715055211202       -1.29558633440681        0.02086127255572
C           32.91842938805671       -2.58175480039251        0.04438189817915
C           31.91580895806305       -3.51316322401737        0.05704727200683
C           30.67428953065238       -2.82012640283320        0.04171976864657
N           30.96837569813643       -1.48420823553730        0.02061920467495
C           29.40327525378234       -3.38465246974637        0.04601364210178
C           28.17993440802340       -2.73243294738724        0.03316718367840
C           26.90676906817302       -3.43103755281083        0.03915636365058
C           25.94977494775872       -2.48005988433624        0.02576157232286
C           26.64238076279416       -1.20466872030071        0.01166196024694
N           27.97650050481838       -1.38680666640520        0.01580649197904
H           24.96960517109710        2.75430271307646       -0.02889557189819
H           26.93447949253952        4.58099141353874       -0.05608998714628
H           28.66733378765006        0.72908249347395       -0.01473862245221
H           29.57528868312593        4.46387698857740       -0.06633028392420
H           32.15702543883688        4.49756517977959       -0.07765947162536
H           34.07338620816333        2.59283812208850       -0.05015239329582
H           33.98178914821910       -2.75989850409234        0.05047476457254
H           32.01690620056075       -4.58659256867854        0.07543673117908
H           30.28407221597867       -0.73506975207260        0.00616486265532
H           29.37606867013616       -4.46977543070540        0.06182146472400
H           26.79433872636746       -4.50380973162261        0.05197778158736
H           24.87793981811277       -2.59908481198879        0.02512831322413
