476
 energy: -761.398730700932 gnorm: 0.000741152276 xtb: 6.5.1 (b24c23e)
C          114.88597717736867        0.27199706589062       -0.09228702993133
C          115.50018996793381        0.45984006360273       -1.32400520922069
C          114.85337799053779        0.61640268713914       -2.58131401426912
C          115.82020726769234        0.74826066128487       -3.53876369590515
C          117.08877579366209        0.68958484324474       -2.89532392353848
N          116.84464788713767        0.50816454989124       -1.56308735322872
C          118.35498525558016        0.78047747393829       -3.48596111124915
C          118.39580243285891        1.01055997754603       -4.94857896281351
C          119.04169590118191        0.10386981943150       -5.79153791729466
C          119.07539822156329        0.29771118312409       -7.16177963791821
C          118.45945835088742        1.41785034459209       -7.72726668066739
N          118.50738423512854        1.68985983174821       -9.08699961906121
C          118.69102028717431        0.59737495909684      -10.03307685942819
C          117.82515422380115        2.33916107496081       -6.88497138399021
C          117.78910080714567        2.13325426708563       -5.51871248588945
C          119.56717287138108        0.66847439145498       -2.79862297142182
C          120.86324520434243        0.88549108233293       -3.41412257503500
C          121.78263682422342        0.70194059845813       -2.44371591761523
N          119.72127656747823        0.37612150970134       -1.47751163947755
C          121.04922101529965        0.37297224537461       -1.23807796802131
C          121.68498383954390        0.10412522633854       -0.00839431385229
C          121.04003801105350       -0.14600587461592        1.21867684027372
C          121.67397807199131       -0.39684106356377        2.46297159974139
C          120.70168997692744       -0.54120055462418        3.41390330887694
C          119.43974391934434       -0.39856538126363        2.77530613235223
N          119.69605242535917       -0.16205002622144        1.44985007512536
C          118.17688191503032       -0.44407671808645        3.37824791880268
C          118.14162904712170       -0.70713894293794        4.83578318024205
C          117.57394370605806        0.21939414776900        5.71247277387414
C          117.54644086190095       -0.00932686090692        7.07761412859994
C          118.09020838674296       -1.18473211980517        7.60351309132343
N          118.04194435078867       -1.48970952355854        8.95634167073093
C          117.94497018268309       -0.41323886758651        9.93321764821597
C          118.64672745408079       -2.12433246895805        6.72727475656419
C          118.67660434010874       -1.88432344653320        5.36638462313405
C          116.96401223048002       -0.25981705478252        2.70558022392342
C          115.65672444559070       -0.38005757038019        3.33178430480400
C          114.74581917141305       -0.17515420945631        2.35875021383767
C          115.49499587547852        0.05991800538894        1.13759788250966
N          116.82692343058434        0.00252829216851        1.38405134795538
H          113.80060352467143        0.27365573506639       -0.10547885577593
H          113.78435296116237        0.61619879539360       -2.72366298092088
H          115.67183886420773        0.86321193706406       -4.60028335646148
H          117.56619922905375        0.40912022365984       -0.85689720441062
H          119.50765399456189       -0.77851756527195       -5.36646335009061
H          119.58296547002192       -0.42730159388004       -7.78619010418077
H          117.78412907589177        2.33527485790145       -9.38113912028157
H          117.96692769011138       -0.20804350165092       -9.86451063325806
H          118.55797196482250        0.99678070604127      -11.03852781358148
H          119.70131071269093        0.19501828728008       -9.94854287243020
H          117.36040383870733        3.22108738382339       -7.31325480491784
H          117.30414899754416        2.86252640902610       -4.87888501266236
H          121.02612763891169        1.16676989791058       -4.44191141414631
H          122.85416519644650        0.79442278982249       -2.51119724283685
H          122.73995264957506       -0.45568762671868        2.60745580067304
H          120.84582133872762       -0.71862096251955        4.46713342460635
H          118.97940413372970       -0.00897531415503        0.74793920868713
H          117.16643736607786        1.14433666164076        5.31898479046565
H          117.10046552776754        0.73215403340061        7.72910783492405
H          118.72352276617666       -2.19020434618850        9.22268188877391
H          116.96309497696615        0.05802396332756        9.87415274728418
H          118.71950500597133        0.34599878706638        9.77483633883290
H          118.06388901162470       -0.84763189752866       10.92584221887734
H          119.05594710008366       -3.04743583109723        7.12428658823440
H          119.10085810278599       -2.62727121955231        4.69975022816488
H          115.48314032641646       -0.61019854843123        4.37071934101036
H          113.66918064037225       -0.18766636525448        2.42816791337300
C          187.21636925291412        0.17751795018718       -0.25029948795435
C          186.63516722227627        0.44141027807271        0.98342722159630
C          187.31391027109308        0.66473092217253        2.21345730533445
C          186.37190702864893        0.86639831998592        3.18343918350004
C          185.08764371608899        0.78497052414335        2.57449960674916
N          185.29750819023647        0.52012588492207        1.25058196797363
C          183.83710516847191        0.92849818074982        3.18768209283986
C          183.83531925357539        1.24913190002235        4.63369291551677
C          183.20079083264955        0.40417971947722        5.54663173840957
C          183.20644187435127        0.68062454864453        6.90294113760311
C          183.85153370075216        1.82394147023664        7.38333021434709
N          183.84476260995370        2.17680030687031        8.72496435968397
C          183.67380427589325        1.14526194205834        9.73937825669803
C          184.47367343846562        2.68425089647320        6.47041886613924
C          184.47047024653907        2.39585197201181        5.11866764310169
C          182.60735133309058        0.78742817635411        2.53802267279168
C          181.32994174222534        1.05993563132171        3.16984469096060
C          180.38413768736950        0.81924344635963        2.23816510528028
N          182.41627343216200        0.40852346010758        1.24374223682465
C          181.08235283075166        0.40056619676910        1.03972718032962
C          180.41158371796868        0.05032272177453       -0.15064541515511
C          181.02315763393116       -0.27306833453982       -1.37778521047985
C          180.35671836858268       -0.59233637275134       -2.58906741911490
C          181.30367531269758       -0.78404800254940       -3.55711976621959
C          182.58199244180142       -0.60549130127727       -2.96140582289033
N          182.36052997166408       -0.30006761393561       -1.64370886098969
C          183.82870642387797       -0.68041934003698       -3.59402392851967
C          183.82822511079630       -1.00095536015839       -5.04052240484353
C          184.37541973908739       -0.10702477647950       -5.96305195114427
C          184.37263129624802       -0.38513210548004       -7.31912223739537
C          183.81801422042523       -1.57886817340322       -7.78943829044054
N          183.83634587620836       -1.93246447854470       -9.13112422880340
C          183.91327257865115       -0.89156192905217      -10.14763424459692
C          183.28226121949001       -2.48594591555947       -6.86719047116593
C          183.28276402920790       -2.19675375919125       -5.51541410118415
C          185.05974991070758       -0.47194814627845       -2.96237821774458
C          186.34884022619227       -0.63343417174030       -3.61665986287077
C          187.28725935878899       -0.39265126943953       -2.67865500342808
C          186.57306375367810       -0.09173089687200       -1.45112688175367
N          185.23444189641452       -0.14834475492268       -1.65911054371601
H          188.30166127826797        0.16765355726668       -0.26455559596309
H          188.38601376210178        0.65992175673032        2.33030267971079
H          186.54703307373850        1.04358722094753        4.23223529571506
H          184.55851224898757        0.38818504645923        0.56818293320673
H          182.71277034194068       -0.49564766478628        5.18809517552627
H          182.70697666461979        0.00176470523855        7.58323094055775
H          184.58288591394697        2.82933674408998        8.96050976868901
H          184.38072039655563        0.31964177261073        9.59783670620438
H          183.84292671846728        1.60108432054941       10.71493814494435
H          182.65569757361575        0.75509739942739        9.70841629261634
H          184.96054346273982        3.58391671417240        6.83206685297944
H          184.94699967258848        3.07853886592114        4.42347796154391
H          181.19631386865353        1.41340608736517        4.17937816483016
H          179.31603882391465        0.92993404357478        2.32583573105209
H          179.28734759425686       -0.66047804703565       -2.70148045904728
H          181.13170027824441       -1.01769869305646       -4.59508659098510
H          183.09480894587259       -0.10775762629255       -0.97023573125428
H          184.79146688766517        0.83129062790105       -5.61248619979275
H          184.80363020363274        0.33209956888788       -8.00680936146886
H          183.14811931958610       -2.64053057793105       -9.35730464152763
H          184.89711300536305       -0.42105610346025      -10.12725496543982
H          183.14391010715576       -0.12514870571132       -9.99900366558785
H          183.77139282171242       -1.36052051237821      -11.12132392563997
H          182.86534439683339       -3.42304822693144       -7.22105149411080
H          182.87498832159935       -2.91544597992191       -4.81287859534466
H          186.49255028162690       -0.91410740658036       -4.64769922689926
H          188.36151243783186       -0.41903410089404       -2.77563044663964
C          123.09397398056382        0.09514427896456        0.01095971568530
C          124.31197591489604        0.08158490783899        0.02024743172440
C          134.02476008083957        0.01657589431135        0.05499015711099
C          135.24396109012983        0.02400916367155        0.05266298478665
C          144.96586511957526       -0.00662354353442        0.08340806236479
C          146.18522273162299       -0.00736901764077        0.08299060883439
C          155.90728614357903       -0.02400989484633        0.06142694809363
C          157.12641526110303       -0.00333179330585        0.06166732970639
C          166.85105879370215       -0.01872202274212        0.09768207402939
C          168.07020144649908       -0.03476557697288        0.08956421264462
C          177.78487526719175        0.00248347499079       -0.10769257218282
C          179.00264686827990        0.03099406038589       -0.12923736146674
C          125.71993687712859        0.07632999667931        0.02652955046871
C          126.34893700744844        0.20879046797770        1.27997955823151
C          125.70820878726296        0.34742250727815        2.53695145530197
C          126.67491474164798        0.36057394472427        3.50550217814336
C          127.93780843792921        0.24539702509466        2.86523024123999
N          127.69066451489019        0.16681850033926        1.52037833238496
C          129.19069146081239        0.15056582030878        3.48449656516607
C          129.19575154382952        0.20444047711921        4.96777061208821
C          129.63815240841012       -0.88627942992858        5.72058395891487
C          129.63688682306983       -0.83813440868803        7.10196474916430
C          129.19727302583223        0.30906044218973        7.77353180868434
N          129.26959198938690        0.33208385822716        9.15967752672360
C          128.40396712276058        1.23335031721777        9.90867994283050
C          128.76694676865498        1.40769512369397        7.02476486894784
C          128.76051553720259        1.34642010209010        5.64116052518991
C          130.41466812590119        0.01439185031254        2.82810522408989
C          131.69029079042673       -0.05786173710928        3.51575393548721
C          132.63800970342371       -0.10819145530133        2.55703788573122
N          130.61071207607918        0.00461881319235        1.47944196357332
C          131.94484365711082       -0.05088951174079        1.28732509087429
C          132.61780409378864       -0.00017868003070        0.04835207192653
C          131.98811537614196        0.05064885791310       -1.21219995541967
C          132.62327271415799        0.18804152602620       -2.47146935068300
C          131.65531782131899        0.15738314028517       -3.43895384207358
C          130.39888527516729       -0.00387744202185       -2.79653187351756
N          130.64872657250555       -0.04358670570645       -1.45043110617426
C          129.14353331407358       -0.10989436947241       -3.41164987531957
C          129.13730113738191       -0.16850063333214       -4.89104464899718
C          128.41815901387642        0.76519494319719       -5.64036023236270
C          128.40890728269846        0.71981782446580       -7.02376595873391
C          129.11158289028069       -0.28303075888067       -7.69800931609967
N          129.17119642298880       -0.35115684182080       -9.08229023069630
C          128.09798288300235        0.23062500646802       -9.87757173814198
C          129.83916128375941       -1.21862045024257       -6.95213310374542
C          129.85371881631798       -1.15773267032609       -5.57177681214716
C          127.91688093903690       -0.16220626788080       -2.74543340382668
C          126.64668174811059       -0.38563315921097       -3.41097669870523
C          125.69765251072093       -0.32880631131916       -2.45298141612296
C          126.38832967163337       -0.07709728473499       -1.20541420382990
N          127.72068710006184       -0.00704241326246       -1.40689115150396
H          124.64288644988346        0.42288862157147        2.67850305851554
H          126.52543743127802        0.43254211255171        4.57042049403786
H          128.40616312130970        0.07395385787855        0.80703571445373
H          129.96650803255409       -1.78716469814639        5.21395648429903
H          129.97701017389076       -1.69429634193371        7.67510363551303
H          129.29653837129865       -0.59691192678690        9.56287494028954
H          127.35340530856321        1.11847876562577        9.61767424522297
H          128.51194854012624        1.00086594065951       10.96816188376792
H          128.71035465350386        2.26738880582918        9.74571445792227
H          128.43952040755326        2.31623506450272        7.51517474681045
H          128.43276852307841        2.20922000434268        5.07131440912495
H          131.82474159993711       -0.05563232050734        4.58518852185754
H          133.70634420461283       -0.17661372836941        2.67571745674517
H          133.68379828942662        0.31040831890395       -2.61493680925855
H          131.79846885135561        0.25643203373089       -4.50251747661716
H          129.93593593013063       -0.12360645620612       -0.73311763749808
H          127.87647254064576        1.55375787051461       -5.12945295447309
H          127.85513692388780        1.47061520945884       -7.57400119496969
H          129.44339710923870       -1.26804987787214       -9.41604450651105
H          128.12682126041025        1.31860895318412       -9.80562023876002
H          128.25707006595925       -0.05433192407789      -10.91759758809940
H          127.11483672587072       -0.12643997028539       -9.55019918608428
H          130.39141415785957       -1.99788277366094       -7.46691485069298
H          130.40520841775961       -1.90215990913747       -5.00775728503125
H          126.51979873012058       -0.58330646747037       -4.46308310259094
H          124.63332782044148       -0.46360903123473       -2.55556677658530
C          136.65073964187346        0.03852538270219        0.05649657204609
C          137.28360447785303        0.21655771821685        1.30351701776966
C          136.64843354865869        0.39686736013615        2.55752833082238
C          137.61772414387744        0.43085513335833        3.52262538793317
C          138.87756918312562        0.28662642133169        2.88263639607000
N          138.62596063918184        0.17441295727157        1.54081325165326
C          140.12928276126038        0.18976454602924        3.50376756828379
C          140.13250123274199        0.26638303927090        4.98632588295594
C          140.54788978850436       -0.82304093832490        5.75602859234249
C          140.53989020610484       -0.75607370452209        7.13661619598897
C          140.12072572611419        0.40919291988939        7.78992046215448
N          140.18321796041459        0.44898814822349        9.17606215797482
C          139.33308832827814        1.38042633504832        9.90583623449051
C          139.71955114241456        1.50699294989804        7.02392020280492
C          139.71917912621024        1.42693947775931        5.64127491798070
C          141.35246205330088        0.02974468543793        2.85199484962463
C          142.62575105827207       -0.04979090317839        3.54298899068584
C          143.57495236779181       -0.11648828907491        2.58665915853680
N          141.55102413295847        0.00634697931350        1.50393209372131
C          142.88497509709237       -0.06178736891745        1.31525497393668
C          143.55923248543340       -0.01628491082897        0.07678566921114
C          142.92750495109186        0.03775065382720       -1.18300581544332
C          143.55844264332140        0.18419703392962       -2.44309090265220
C          142.58831411013770        0.14822281035138       -3.40849132413341
C          141.33503058014816       -0.02700692073850       -2.76379549223663
N          141.58827350791094       -0.06552504742229       -1.41828563153110
C          140.08021948202853       -0.15559546619620       -3.37634097664725
C          140.07235702422400       -0.22057605523686       -4.85531774880614
C          139.32895977349818        0.69323168181944       -5.60575336856161
C          139.31887070947678        0.64495886085251       -6.98898179404106
C          140.04590787158799       -0.34101222441503       -7.66238713126631
N          140.10701931376261       -0.40904099136091       -9.04651984800906
C          139.02071706504216        0.14619316464656       -9.84292373101763
C          140.79655586542142       -1.25741694125147       -6.91554271823316
C          140.81120207171307       -1.19374655313359       -5.53528852011119
C          138.85523348854727       -0.22534767802918       -2.70863190585800
C          137.59046912219756       -0.48555046636880       -3.37029321616267
C          136.64007185523778       -0.43108746407237       -2.41311851044620
C          137.32385308925782       -0.14154644229337       -1.17066881158855
N          138.65455307582945       -0.05155762332685       -1.37252378121747
H          135.58498771892471        0.48578241648765        2.70046161542615
H          137.47189715625061        0.53497908679366        4.58531007575545
H          139.33815841179663        0.05689479036986        0.82785825224098
H          140.85967379515608       -1.73744581915049        5.26332287182726
H          140.85792045318269       -1.61156314103875        7.72327668961583
H          140.18503865202018       -0.47491237222592        9.59167018199788
H          138.28346291404000        1.29069023311995        9.60309756173938
H          139.42217133083912        1.15569718574992       10.96872411405568
H          139.66901126902647        2.40427898777694        9.73657269691889
H          139.40925800270949        2.42897330784326        7.50014092882659
H          139.41277733001493        2.28837624136464        5.05768724444455
H          142.75772498205794       -0.04123158372297        4.61271189083377
H          144.64236231300683       -0.19342376832568        2.70822449601387
H          144.61747661205771        0.31650107962888       -2.58851362780024
H          142.72819507072489        0.25235432081372       -4.47200473849912
H          140.87835173839892       -0.15275218244266       -0.69899998234683
H          138.76864881816698        1.46918196189238       -5.09560044726609
H          138.74569038670643        1.38059906605594       -7.53980891982728
H          140.40225004474590       -1.31891531956086       -9.37983137767991
H          139.02118328522565        1.23440765202494       -9.76894135929484
H          139.18927705816378       -0.13255135005087      -10.88313776226058
H          138.04648621840434       -0.23687579908311       -9.51829197467075
H          141.36710750535599       -2.02393293848858       -7.42950615059638
H          141.38103331208097       -1.92396868145005       -4.97094172207692
H          137.46785643517671       -0.70491693304072       -4.41864334183134
H          135.57873359898514       -0.58871413391032       -2.51333217094428
C          147.59184358796645       -0.00196117432063        0.08284462075648
C          148.23200423288952        0.14296514471462        1.33042713802084
C          147.60486828845049        0.28853112732043        2.59292172560297
C          148.58034286531279        0.29679447224743        3.55234483437970
C          149.83612002203159        0.17074767535774        2.90057015290155
N          149.57584086193722        0.09421160354412        1.55792342252441
C          151.09172858203999        0.05786117713632        3.51106781850460
C          151.10511070344111        0.10183597342901        4.99489699655417
C          151.52632789911434       -1.00287380156071        5.73913695897134
C          151.53046728075012       -0.96328514098728        7.12086442740621
C          151.11796690643581        0.18894680889233        7.80092374545308
N          151.19388206188381        0.20163340062062        9.18692806803248
C          150.35181227681633        1.11930577081798        9.94301391622322
C          150.70988831779991        1.30161380323576        7.06040477736613
C          150.69739211626768        1.24900947395590        5.67655443611347
C          152.31057046571681       -0.08688070894917        2.84758910028407
C          153.58799098714141       -0.18805140796352        3.52799424331762
C          154.53118267283364       -0.22796172115484        2.56427212780429
N          152.50070472659687       -0.07247540984760        1.49809361204307
C          153.83345330731692       -0.13476525046628        1.29929914346069
C          154.50077152726371       -0.05076391237443        0.05893619018259
C          153.86237302827010        0.02893437281038       -1.19592491159353
C          154.48547654136513        0.20591717114277       -2.45606767061574
C          153.50941668859571        0.19117059874231       -3.41614763445372
C          152.26031488312100       -0.00099111182224       -2.76815926427934
N          152.52201707380539       -0.07257455959743       -1.42564243396171
C          151.00105706585546       -0.11348373049762       -3.37447533853619
C          150.97810823636735       -0.13434342886455       -4.85446816683366
C          150.22307911907919        0.80008869325022       -5.56725163399729
C          150.19185434041779        0.79135687406523       -6.95080847949147
C          150.90869636503402       -0.17468000320312       -7.66298451417260
N          150.94543452969845       -0.20445285225865       -9.04938124058548
C          149.84139723225908        0.36626712141902       -9.80988518841277
C          151.67271004966136       -1.11000727976701       -6.95422266634213
C          151.70846956744515       -1.08578725046221       -5.57295967818298
C          149.78102161055577       -0.20288671555346       -2.69975391823343
C          148.51278064123835       -0.45056899231378       -3.35961890157580
C          147.56809013582594       -0.41953336419211       -2.39580777436754
C          148.25870063725847       -0.15658419407592       -1.15141998018792
N          149.58817432030787       -0.06072726047688       -1.35881217139061
H          146.54221208408521        0.37108324369748        2.74510070071084
H          148.44141237081359        0.37126266317745        4.61845302905792
H          150.28320381405354       -0.00334161910491        0.83713495125457
H          151.83324356823758       -1.90756439543837        5.22589192137595
H          151.85335910121276       -1.83036496441341        7.68750853199531
H          151.19876235830353       -0.73018145549662        9.58443614487900
H          149.29893041876403        1.03493454872141        9.65023443143361
H          150.45258875459768        0.87507461434946       11.00054406139028
H          150.68586576446836        2.14615914507812        9.78898649634892
H          150.40395825960502        2.21397500750036        7.55749998441170
H          150.38605720046712        2.12187316088976        5.11289663971801
H          153.72676146117036       -0.21148069478188        4.59662575660475
H          155.59896774931204       -0.31288181891164        2.67677565750057
H          155.54367517925564        0.34204241048290       -2.60472054336691
H          153.64254903215587        0.32017686269590       -4.47781257789009
H          151.81679940558311       -0.17726659144983       -0.70404704695199
H          149.66957608451617        1.56004134455910       -5.02649258997811
H          149.60955543743728        1.54147579257544       -7.47172357457152
H          151.23811523824696       -1.10364817230076       -9.41261351877780
H          149.83870403975911        1.45218433407402       -9.70766012827428
H          149.99057888752156        0.11535312965944      -10.86008015138136
H          148.87535256110363       -0.02962738887369       -9.47625061822841
H          152.23598525761685       -1.86086267437121       -7.49843275065800
H          152.28732948344546       -1.83117559257549       -5.03843254177499
H          148.38436046167820       -0.64718588245333       -4.41175757583787
H          146.50670656903901       -0.57832033081385       -2.49306666623388
C          158.53301281490067        0.02167084906287        0.06692600861351
C          159.16405574864456        0.17290388380904        1.31854569252604
C          158.52574051513781        0.31353871595382        2.57586495051614
C          159.49374007251498        0.33665129958989        3.54250341796791
C          160.75614142595361        0.22675543267526        2.90061515544507
N          160.50681066023296        0.14279987510859        1.55614950999097
C          162.00922937057291        0.13927750977147        3.52117171082752
C          162.00879900917647        0.18617754590487        5.00452189013537
C          162.45905240933436       -0.90548876189723        5.75141768709895
C          162.44187591356064       -0.87153859532897        7.13306940019052
C          161.97693388902130        0.26172413895099        7.81105485567577
N          162.02656488854205        0.26950047031721        9.19834275498179
C          161.12750589284090        1.14240290697384        9.94202893144699
C          161.54323738108494        1.36338933404610        7.06855043271786
C          161.55348683578677        1.31654159899396        5.68450975771563
C          163.23569257811857        0.00846084761223        2.86835603237122
C          164.51013663506708       -0.05095045754129        3.55954780956096
C          165.46058332091212       -0.10373332484334        2.60356924130910
N          163.43508685986632       -0.00838363875628        1.52042447741572
C          164.76991997998650       -0.06083538859077        1.33202284097965
C          165.44409938352504       -0.01715610762759        0.09378121222024
C          164.81333911742973        0.04530806693801       -1.16622232666133
C          165.44640418396435        0.20130555173508       -2.42414352953854
C          164.47718286242494        0.18116631165608       -3.39081958581042
C          163.22226012928297        0.00648563034171       -2.74926728760855
N          163.47382083761454       -0.04894047093000       -1.40396689214921
C          161.96732510432361       -0.10148610934443       -3.36518360621693
C          161.96119611861292       -0.14183862613302       -4.84527847157245
C          161.23414345629635        0.79576883355452       -5.58196238106047
C          161.22504838770885        0.76892602761181       -6.96585134920076
C          161.93595723043060       -0.21887539650693       -7.65351400861223
N          161.99730981486297       -0.26691941420351       -9.03856933017661
C          160.92129938483311        0.31875442360226       -9.82708591241239
C          162.67024357159340       -1.15919361488706       -6.92025221976168
C          162.68459299376215       -1.11667622806544       -5.53918956035695
C          160.74055669157823       -0.17376229415925       -2.70137437162612
C          159.47546374587998       -0.40966418956301       -3.37165162344118
C          158.52390853611027       -0.37581306866458       -2.41480363246190
C          159.20726177871180       -0.12263356701335       -1.16417518088139
N          160.53850110215996       -0.03155442362483       -1.36186068311253
H          157.46116959253396        0.38444129667650        2.72009773282715
H          159.34452971010319        0.41120079838204        4.60716662136033
H          161.22084139086752        0.04992347253407        0.84137678873457
H          162.80419943006740       -1.79707691033044        5.23947917949831
H          162.78679475153044       -1.72914031262747        7.70117086094381
H          162.06425552369237       -0.66409630999976        9.59010302315319
H          160.08627303149123        1.01243737417018        9.62535668795155
H          161.21621068854790        0.89463589092093       10.99980776425452
H          161.41761571531222        2.18449662899478        9.80242747861938
H          161.19877894015178        2.26246271615785        7.56468452388866
H          161.22175645632424        2.18118117657095        5.11982397243584
H          164.64184052490535       -0.03788072785601        4.62926453665782
H          166.52943188183775       -0.16040021431546        2.72495166691605
H          166.50596099687834        0.33155343344891       -2.56722190310179
H          164.61881295470809        0.29555911451272       -4.45304522066270
H          162.76271647806956       -0.14015357819291       -0.68633583174977
H          160.68591602309769        1.57278357722396       -5.06042321954818
H          160.66495730859901        1.52241759768674       -7.50591291749199
H          162.27684592477283       -1.17677778903647       -9.38521504260618
H          160.94037194455484        1.40556411814779       -9.73671425002246
H          161.08592422690930        0.05286944832262      -10.87128548743622
H          159.94036706867712       -0.05236859323229       -9.50881402436107
H          163.22808751869033       -1.92746143898611       -7.44541572960683
H          163.24158840185288       -1.86444553559552       -4.98510269691997
H          159.35345240475357       -0.59996008618519       -4.42570901159225
H          157.46181537895697       -0.52451171804040       -2.52079453673191
C          169.47705514752440       -0.03697418313503        0.06923667136036
C          170.13775197396350        0.11993307883366        1.30418675821510
C          169.52924225480658        0.25941453986387        2.57675579967157
C          170.52021417677966        0.28788950687245        3.51955884454745
C          171.76747397428247        0.18238294493805        2.84747707274400
N          171.48590690304056        0.09279986873843        1.50975764305399
C          173.03588262809774        0.10639888222975        3.43723734658192
C          173.07638613805159        0.16963437166514        4.91945475269384
C          173.55644072247071       -0.90900961204908        5.66665620568995
C          173.58963348584530       -0.85332232464722        7.04737778174314
C          173.14805117242923        0.29006840584140        7.72402596186346
N          173.25465459364796        0.32298934568157        9.10735985403635
C          172.39472372693916        1.21601533134594        9.87264345842822
C          172.68025996779971        1.37708219282555        6.98043212300468
C          172.63922757670727        1.30802335827576        5.59793668186262
C          174.24623764730978       -0.01978438457023        2.75335750682716
C          175.53961828904431       -0.07056587342803        3.41010208371032
C          176.46482860990793       -0.11852060926767        2.42953739671098
N          174.40890314970508       -0.03887095854395        1.40110495652793
C          175.73905680144117       -0.08026992458293        1.17688365716473
C          176.37752052192943       -0.03312862714722       -0.07891783663904
C          175.71672148653184       -0.00268026212356       -1.32345010755665
C          176.31855127248940        0.13798963272096       -2.59870581499934
C          175.32710316829767        0.09184713458711       -3.54172754056979
C          174.08948064533612       -0.08433967642103       -2.86756732641640
N          174.37325549544303       -0.11616389438390       -1.52815033472832
C          172.82057807550760       -0.21432173784855       -3.44940542348417
C          172.77273663938809       -0.27170393091216       -4.92787117462835
C          172.00705918193526        0.64592801877051       -5.65084160691781
C          171.95588228628375        0.60524199597286       -7.03327691356726
C          172.66287939120977       -0.37662139179865       -7.73346578316226
N          172.68131525815184       -0.43662595835538       -9.11938246996872
C          171.56809201975864        0.11969161825661       -9.87711437050650
C          173.43618152899134       -1.29634964028738       -7.01447132863969
C          173.49174966457863       -1.24032162928588       -5.63475357011557
C          171.61324055794773       -0.28817982537510       -2.75071038668051
C          170.33344209950508       -0.55246307365444       -3.38080838881761
C          169.40725382829484       -0.50173992508012       -2.40002040878572
C          170.12090078587940       -0.21089728715566       -1.17485039482355
N          171.44584520390151       -0.11721404397368       -1.40967016641987
H          168.46755890073601        0.32133916891842        2.74567606138397
H          170.39737632041266        0.36263075541169        4.58762226439156
H          172.18287788521039        0.00262564400252        0.77798554709627
H          173.88687456918635       -1.80733636914464        5.15683277135799
H          173.95882142944083       -1.70078530822972        7.61541544197218
H          173.30809533220875       -0.60231761815269        9.51620209222085
H          171.33959001857448        1.08709771352020        9.60524816316101
H          172.52897056710557        0.98849336105110       10.93018020468890
H          172.68447585589280        2.25326734755824        9.69970471967460
H          172.35056995514989        2.28281251964166        7.47444765371311
H          172.28259911161956        2.16222057128784        5.03251117155631
H          175.70028770459277       -0.05632121113235        4.47580689331208
H          177.53667661624144       -0.17496982187924        2.52297241102052
H          177.37383195051308        0.27383681450963       -2.76842454012980
H          175.44192502269181        0.19009286140478       -4.60880490500519
H          173.67975450491929       -0.20127277134059       -0.79273026032293
H          171.46128932496015        1.41836298100098       -5.12002738150047
H          171.36593068948986        1.34333515079649       -7.56265200658741
H          172.96693603975154       -1.34435814337872       -9.46673764818126
H          171.56588247326343        1.20723815910610       -9.79429314554716
H          171.70525607371397       -0.14979864518730      -10.92432947835385
H          170.60630333874593       -0.27067879622350       -9.52519030213187
H          173.99145269551494       -2.05990781691913       -7.54917044826120
H          174.07812343131798       -1.97340473739966       -5.09141207456283
H          170.18549437584571       -0.77239850969564       -4.42575658112191
H          168.34505918738361       -0.66735978934565       -2.47381719673033
