268
 energy: -447.627148894337 gnorm: 0.000756461274 xtb: 6.5.1 (b24c23e)
Cu          57.86596715913567        0.05480850226981       -0.02360448890968
C           54.45675993437023        0.14104823673439       -0.07414249558602
C           55.09235929893436        1.04437868796910        0.76463666845127
C           54.41752717602810        1.96323348065555        1.63531048650903
C           55.37711884082055        2.65343593596921        2.30072887518230
C           56.64752819046331        2.17124716500619        1.83165977047381
N           56.44326278183312        1.19315919475364        0.90182691182719
C           57.89227980216751        2.61545112143520        2.28615080533153
C           57.90250429003455        3.71996941320306        3.27576524147924
C           57.36005719883791        4.96712759912692        2.95405332311932
C           57.37330224993154        6.00185307033550        3.87024079346096
C           57.92475888204984        5.81698766688501        5.14381489859373
N           57.86280333924208        6.86678235534841        6.04972319020118
C           58.81980349306294        6.92597593705683        7.14664322863793
C           58.45363378003753        4.56674434165453        5.47651913574376
C           58.44741399309773        3.53946170113340        4.54789263165169
C           59.12490477849943        2.10213149526031        1.87524957150418
C           60.39962728450308        2.60082549474128        2.30457402814563
C           61.34782665229098        1.86855698752991        1.66717412375981
N           59.31940976551473        1.08088138743870        0.98218601452627
C           60.66471878999374        0.92633613471560        0.83462612431791
C           61.30697272085887       -0.00408669098535       -0.00401508483957
C           60.64146999510797       -0.92951464960094       -0.83019739218509
C           61.29969677643753       -1.92065442755439       -1.62453254738999
C           60.33402557120032       -2.63294772738113       -2.25821411075782
C           59.07359652044006       -2.07037185171344       -1.86805020158316
N           59.29346169447215       -1.03747592159203       -0.99417991685276
C           57.82917405928472       -2.53310301977976       -2.30283387778245
C           57.81356018601677       -3.65391004452009       -3.27364459559851
C           58.40911629825032       -3.52471360836185       -4.52925433663119
C           58.39672043018879       -4.56911554868591       -5.43849236865615
C           57.79654534511911       -5.78553108855306       -5.10192969268139
N           57.71758672952028       -6.85014036018169       -5.98987068631558
C           58.71769585804844       -6.98059019707720       -7.04155812115938
C           57.19122381623998       -5.91773959361683       -3.84655179120728
C           57.19769615407352       -4.86587328970921       -2.94985678567587
C           56.59588747792150       -2.01904447813932       -1.89324988114189
C           55.31747671112368       -2.43800510000577       -2.39978464995425
C           54.37532046121004       -1.68854555351534       -1.77470786962706
C           55.06982875992913       -0.79876756021251       -0.88926428600826
N           56.41440984907569       -1.02093357324859       -0.98028912182139
H           53.37205218075884        0.17060890681573       -0.09223231726089
H           53.34601659200199        2.04903715380817        1.72656725576961
H           55.24278253888332        3.41272596790341        3.05432339407603
H           56.94439821314175        5.12985393429125        1.96555380484911
H           56.95609448853651        6.96757308395072        3.60445790283229
H           57.74333048886021        7.76480361949706        5.59616384210434
H           59.85115559049049        6.83277133636535        6.78742814518747
H           58.61627460157182        6.12990455340190        7.86388191888805
H           58.69814422019194        7.88617457549315        7.64812250167454
H           58.86843489988485        4.38762073421213        6.46096052763593
H           58.85301972877967        2.57135007422005        4.82150330406885
H           60.54862622574414        3.41657421059259        2.99329331333501
H           62.41800068413029        1.95558005436569        1.75073632222809
H           62.36622819795881       -2.05825837911438       -1.67927679695031
H           60.46205976632309       -3.47463163070580       -2.91941157417045
H           58.87081580974789       -2.58295630377165       -4.80575910043692
H           58.85328522396915       -4.42955870046324       -6.41073253520749
H           57.53755258095747       -7.73106025760173       -5.52293113146027
H           58.58769157101023       -6.19016724169993       -7.78171107545180
H           58.56866842695901       -7.94348697304973       -7.53020615818017
H           59.73559950137878       -6.93264753027479       -6.63785909918868
H           56.71724656274151       -6.85630154036253       -3.57877529480740
H           56.74027361348033       -4.98854688550660       -1.97412625061036
H           55.16742937718661       -3.19761046429869       -3.15014414808439
H           53.30438759687880       -1.71729479958388       -1.90158098277159
Cu          90.62985580688049        0.03763815481049       -0.03073107979379
C           94.04005339305823        0.04713330122797       -0.04917007480812
C           93.41480949124987       -0.95870327873876       -0.77129770724251
C           94.09857922259667       -2.00966517959347       -1.46818132591770
C           93.14616193064361       -2.79077342384389       -2.03676098954670
C           91.87190420529778       -2.21556388827816       -1.70221226729249
N           92.06634202856023       -1.10757474855596       -0.92999636236254
C           90.63114404143386       -2.73280357535644       -2.08700425258378
C           90.63286630511620       -3.91473926641216       -2.98212219607038
C           91.22540262981261       -3.84605834602444       -4.24617670822926
C           91.22417939567670       -4.94161321928195       -5.08866455783422
C           90.63913157021295       -6.14805931499356       -4.68551153890175
N           90.61782045958509       -7.20445999367247       -5.58577635267492
C           90.48353928189572       -8.56806822873367       -5.09134434818581
C           90.04254438134510       -6.22174423824802       -3.42378251184346
C           90.04200518140578       -5.11662039987737       -2.58912190410866
C           89.39267262375805       -2.21742985724519       -1.69665569112804
C           88.12332683093564       -2.71867017920251       -2.13962300221456
C           87.16792761799668       -1.95187234509198       -1.55594589429260
N           89.18741724893773       -1.14972900830261       -0.86191794048213
C           87.84149249590638       -0.96800904195577       -0.76462686523119
C           87.18965011644551        0.02882162016341       -0.01367256483199
C           87.84384954803160        1.02730489410674        0.73319704700390
C           87.17349820874756        2.00461171834617        1.53506567278558
C           88.13105134250323        2.77599347907384        2.10934014492258
C           89.39814430330084        2.28435025783837        1.64975422658471
N           89.18975973277384        1.21655968062128        0.81605210442589
C           90.63791920324779        2.80902573883494        2.02394328870183
C           90.64136421886546        3.99555333526171        2.91251082770332
C           90.03191554700734        5.18830167463193        2.51959311833123
C           90.03192876310867        6.29903312096870        3.34648764407044
C           90.63413042930102        6.23618173986202        4.60610319406765
N           90.70114483511294        7.33108727827954        5.45717924199817
C           89.69316347972928        8.37853883135519        5.35723893382467
C           91.25357572821544        5.04472317256059        5.00205573792316
C           91.25858774126704        3.94451346211583        4.16551930956331
C           91.87734782592167        2.29942989599653        1.62506245567480
C           93.15192295410866        2.88391828224369        1.94235356895394
C           94.10236242710552        2.10687864619253        1.36517858072467
C           93.41691117588611        1.04966664421370        0.67925790821504
N           92.06956357052491        1.19043618159119        0.85366092990614
H           95.12534545580418        0.05060654306881       -0.05549630794469
H           95.17009580755753       -2.13115693755899       -1.49898659160029
H           93.28750934512099       -3.68719661195261       -2.61907642383089
H           91.67351822584743       -2.91500091622925       -4.57589217213329
H           91.67735928587095       -4.87072682520169       -6.07195584445812
H           91.33375427692535       -7.12261788402207       -6.29795910227022
H           89.48132413178328       -8.72308249801236       -4.68992864280369
H           91.22215449330194       -8.78954238335959       -4.31237200324119
H           90.63134442519369       -9.24678966282579       -5.93125857468946
H           89.57579173602129       -7.13919332732761       -3.08662532261571
H           89.59138317768816       -5.19247501465417       -1.60537235786092
H           87.98244970935063       -3.54043947754194       -2.82284555451401
H           86.09892175901439       -2.03833753297058       -1.65400859238918
H           86.10518088519115        2.08317950655432        1.64693660328065
H           87.99305990691951        3.59462334355363        2.79695205898205
H           89.56920775029005        5.25303286333956        1.54067906024577
H           89.56410357212701        7.21376861676703        3.00350552990104
H           90.88150836626775        7.06479023393304        6.41793924203484
H           89.82142396108748        8.93358946968401        4.42710480875866
H           89.83471002706042        9.06285591935892        6.19381034654999
H           88.67820550195354        7.96613360379297        5.39395095044173
H           91.72933116265224        4.98843428564213        5.97557835231644
H           91.72598609116194        3.02235721615464        4.49348964806349
H           93.29488891905297        3.78348566770632        2.51928261101847
H           95.17335847068762        2.23524681437932        1.38275977260004
C           62.71812667924569       -0.00713163048517       -0.01832641576998
C           63.93638804741827        0.00372511303334       -0.04168973892740
C           73.64476891161345        0.04154422297891       -0.04498789167047
C           74.86300228007106        0.03504613614839       -0.02981832857451
C           84.56074163552896        0.02822591928491       -0.00732537692557
C           85.77942137310501        0.02809484945510       -0.01029483658541
Cu          68.79478184740833        0.04058787920436       -0.06487744880626
C           65.34681346055370        0.01292113729500       -0.05247555318367
C           66.00752402259590       -1.02439972979686       -0.73746365766334
C           65.34683477449516       -2.09553395743557       -1.41728539623004
C           66.30793875325590       -2.84052702012498       -2.02042920269266
C           67.56853593805164       -2.23778146618223       -1.69842819754298
N           67.35340670609428       -1.13500161836099       -0.91486577077370
C           68.80690676703634       -2.67820630057025       -2.17226734094625
C           68.81016755583666       -3.84893136831693       -3.08585255679307
C           68.39617017561172       -5.10546889271944       -2.63817747958830
C           68.39837157497445       -6.19450945396029       -3.48999132502075
C           68.80498740539909       -6.05454474881182       -4.82208159030304
N           68.83424099333637       -7.18584391330961       -5.62741176491890
C           68.74333561166523       -7.03569961745423       -7.07397636765523
C           69.22800633897221       -4.80106717321473       -5.27207775167509
C           69.22893628417262       -3.71706739283093       -4.41003616313070
C           70.04131839535397       -2.10818766641667       -1.85610983874900
C           71.30870885548514       -2.56789771113881       -2.34629710361748
C           72.26297571320204       -1.79863094539145       -1.76275998167760
N           70.24522471769082       -1.07423353881109       -0.98049946213225
C           71.58876343319055       -0.87585984873176       -0.90115238686331
C           72.23759397580784        0.04951389382060       -0.06226891730736
C           71.57861115555203        0.97523171229484        0.76936236332929
C           72.23790468737610        1.84652323205330        1.69279253981740
C           71.27659331816986        2.60907704979466        2.27534181792833
C           70.02215063557492        2.20883864839846        1.70761324086847
N           70.23668252942656        1.19745441221422        0.80863748340501
C           68.78320487746549        2.77476917173255        2.01955378798100
C           68.77588256011633        3.95117212135688        2.91867375386378
C           68.04794118531264        3.93520321340392        4.11020119735296
C           68.04316732853280        5.02636570804563        4.96221092001185
C           68.77161369684983        6.17396866292213        4.63643234759148
N           68.75876886133202        7.31570825318044        5.42521545286407
C           68.46845734492811        7.20258311910620        6.84841928868563
C           69.49060940411216        6.20159018259104        3.43520894399795
C           69.49715760254639        5.10430999993763        2.59523445252950
C           67.54961876794091        2.31465885760305        1.54897852550794
C           66.29264012771166        2.96677174204176        1.77228216572586
C           65.33686599289872        2.19381916249949        1.19491902376130
C           66.00028108232786        1.06898554614668        0.61200413940472
N           67.34235063124056        1.17400752449081        0.81936286810595
H           64.28165706199979       -2.25280078675328       -1.43168056823867
H           66.17515000453983       -3.71559191850766       -2.63573135289966
H           68.08521935236351       -5.23009691665503       -1.60667343928747
H           68.08330996103011       -7.16747125047651       -3.12764704535247
H           68.23049064522004       -7.92231392464346       -5.28137509865001
H           67.88578794447005       -6.41666354813307       -7.36195923305198
H           69.65765443416065       -6.58451081622417       -7.46135271583704
H           68.63327396240346       -8.02887260245947       -7.50947564604044
H           69.55869711187086       -4.66396195111949       -6.29435737758277
H           69.54410602215799       -2.74549304601017       -4.77514269518233
H           71.44937124090509       -3.37973603754587       -3.04133449736641
H           73.33073071633204       -1.84754109549249       -1.89985842099634
H           73.29925194570633        1.85855632636772        1.88001115391295
H           71.40251531716288        3.35928115947209        3.03925650368703
H           67.49399080844194        3.04361664795288        4.38365754834726
H           67.47027400764816        4.97792931287001        5.88012651305482
H           69.54745692557209        7.92448518291754        5.24170591632667
H           69.10552691993830        6.45282833033077        7.33155071003793
H           68.64600761688497        8.17554897033873        7.30669219844561
H           67.42189809431814        6.93323845411064        6.99631382108822
H           70.04530185610149        7.09440535783743        3.16614350515033
H           70.05101272408585        5.14441604426305        1.66363794814132
H           66.16127782011887        3.90708178860495        2.28280260811628
H           64.27683884398888        2.37837315520463        1.14581950918955
Cu          79.70834780333587        0.02470949015143       -0.00715775014427
C           76.26968618020759        0.03000135277918       -0.01877482789629
C           76.92798465357500       -1.05128790464984       -0.63540199786232
C           76.27529822111377       -2.21423522893838       -1.15147542548943
C           77.23431714052060       -2.98656348947316       -1.72562083720853
C           78.47986053786370       -2.29478961490116       -1.56712792854840
N           78.26515557019228       -1.13014186731905       -0.87818029558692
C           79.71127149826681       -2.72809111309619       -2.06734872644421
C           79.71669728455741       -3.91551736362864       -2.94849843021732
C           80.52105433279773       -5.02095047439183       -2.65261189166685
C           80.52544487397562       -6.13289705195953       -3.47221927069221
C           79.73339165932661       -6.16940512842128       -4.62689627403284
N           79.73640846171085       -7.32515555448931       -5.39258395660867
C           79.33620378563816       -7.26706395327072       -6.79182601205834
C           78.92406872230151       -5.06941446426934       -4.92623644604406
C           78.91887985859643       -3.96329661981142       -4.09420912488495
C           80.94018451561512       -2.11814456674084       -1.79482718032263
C           82.18277485717510       -2.45589474159596       -2.42407003668089
C           83.14036734874043       -1.68045910461290       -1.85207744060185
N           81.15524882218760       -1.12908449966391       -0.87207138753996
C           82.49167221377492       -0.86425749266552       -0.87412501925371
C           83.15184081129892        0.02790080771774       -0.00715756237275
C           82.49037681944831        0.91845917245270        0.86051621694910
C           83.13780875414918        1.73525326782094        1.83873057210220
C           82.17834369940485        2.50641814793196        2.41342584156697
C           80.93599067501404        2.16617092803117        1.78502312630966
N           81.15316820658705        1.17955768139029        0.86009818628768
C           79.70564850316350        2.77193856172074        2.06033238380582
C           79.70934956676197        3.95385048793178        2.94934722446920
C           78.91818228978447        3.98915054159517        4.09989173199834
C           78.92581486347694        5.08783258061417        4.94191035681421
C           79.73056940192832        6.19228893080539        4.64756791505101
N           79.73704180569804        7.34078116805189        5.42564856534689
C           79.36026982108847        7.26151289054683        6.83055260362591
C           80.51342640485905        6.16965241978846        3.48658256376545
C           80.50709555297489        5.06487884632013        2.65713383129080
C           78.47514457421691        2.34053902957783        1.55651621245317
C           77.22914567209612        3.03131177227143        1.71696604877284
C           76.27196725767872        2.26524184666360        1.13138633908452
C           76.92620198099141        1.10612916327185        0.60818876059691
N           78.26222543731313        1.18134699637345        0.85833572147295
H           75.22098954218701       -2.41994161487088       -1.06419456344145
H           77.11365040633150       -3.95120123561448       -2.19153102537276
H           81.13142619108932       -5.01255400039263       -1.75572942518302
H           81.14516959906776       -6.98824252056089       -3.22340559385379
H           80.56636759783628       -7.88796494269540       -5.25023374984080
H           78.26730105631499       -7.06295944306826       -6.86660216573860
H           79.88995235753507       -6.49477220239486       -7.33790764463864
H           79.53761768431430       -8.23995908453563       -7.24030280773005
H           78.29614698204571       -5.07027921283072       -5.80870141204915
H           78.30249867699149       -3.10821555026825       -4.34980199757421
H           82.30258993232133       -3.17357191889975       -3.21956690236246
H           84.19143120156157       -1.64633157757848       -2.08513629375588
H           84.18942999845389        1.70436264853815        2.07008138056142
H           82.29702906413148        3.22323462856250        3.20986492192688
H           78.30510378326500        3.13033792632117        4.35112567289324
H           78.30333253073509        5.07917651789302        5.82826966615568
H           80.56501836457066        7.90605520786861        5.28025749223965
H           79.92693960589948        6.48475384835170        7.35685603588115
H           79.56409546997614        8.22923302942021        7.28901726515214
H           78.29382214871998        7.05073655375688        6.92036658828419
H           81.12794278557409        7.02945595509992        3.24103896304277
H           81.11099805826603        5.06629389072748        1.75626043591459
H           77.10712308253032        3.99120811800360        2.19229277464232
H           75.21773357153884        2.47151009998014        1.04312210928442
