191
 energy: -378.655754846442 gnorm: 0.000864344568 xtb: 6.5.1 (b24c23e)
Co          29.80458957813324       -0.00029754073935       -0.08425311867397
C           26.43607873823188       -0.00182186765208       -0.24793847706554
C           27.08734607728114       -1.21137490746504       -0.13443926447912
C           26.42163675747852       -2.47502107577857       -0.04101164345964
C           27.38043297839247       -3.42655632113068       -0.12761090971467
C           28.62939060110280       -2.74173411115516       -0.29505501248007
N           28.44578798315137       -1.38460479262872       -0.22517458890360
C           29.82859111286746       -3.36526255183612       -0.61399398185941
C           29.84513314675284       -4.82698842522092       -0.83869163931316
C           30.66672873014978       -5.64918049550914       -0.06125071594213
C           30.68959481750056       -7.01647389214581       -0.26677819124139
C           29.88798242116649       -7.56643360123234       -1.26303797876947
N           29.91181826726099       -9.00155550923256       -1.48662267396145
O           29.20338299598585       -9.44217396082731       -2.35504230547420
O           30.63899143295008       -9.66211201668749       -0.79031292282229
C           29.06521041516384       -6.76550797786559       -2.04978603165964
C           29.04541776470326       -5.39990036642143       -1.83234450466562
C           31.01317110616942       -2.65400093770194       -0.74405528475698
C           32.25759103737946       -3.22843691485901       -1.15933931634317
C           33.20162663497910       -2.26937524259927       -1.00328099545632
N           31.18481076715386       -1.33299686532617       -0.40265553039474
C           32.53092889339667       -1.11315983829939       -0.49902710365088
C           33.19625157294033        0.02046019527812       -0.02696740935938
C           32.50323208234584        1.13597420252946        0.44903213161134
C           33.14163056331397        2.28088775961302        1.01660889853923
C           32.17599788898026        3.21349727589381        1.19879398634883
C           30.95332336349359        2.63948982419136        0.72218379087739
N           31.15658029240042        1.33661168503047        0.32942767294790
C           29.76915768966446        3.34408971051154        0.56131148063988
C           29.74870928330993        4.79348762446761        0.85517002674295
C           28.87480555773866        5.30502729059180        1.81945188159576
C           28.85409981287603        6.65866012803490        2.10172756075946
C           29.71023607448242        7.50972154274983        1.40869397154611
N           29.69109102509083        8.93280826006033        1.69944078665997
O           28.92023118451536        9.31968476103526        2.53985532901543
O           30.44733640972326        9.63800521451583        1.08219824550285
C           30.58430628351270        7.02151589210468        0.44164454398615
C           30.60152665968367        5.66542023114686        0.17131168931454
C           28.60356717120091        2.73006846296242        0.12057265246063
C           27.37516374420341        3.42140582928857       -0.14329904894222
C           26.43757874187186        2.47514026630654       -0.38329894367867
C           27.09476752385995        1.20833900803574       -0.27095286320998
N           28.43523453395720        1.37796991342349       -0.02669685415036
H           25.35434280002639       -0.00183358712723       -0.30861786060452
H           25.35636829451404       -2.59729830806176        0.07211730434857
H           27.26579788375515       -4.49759087558351       -0.08764814271644
H           31.27762101506682       -5.20956986649835        0.71855677043747
H           31.31798220490465       -7.66228404301729        0.33468309042620
H           28.45513902685288       -7.21778787708229       -2.82242968427323
H           28.41999381632301       -4.76403686230229       -2.44802574088267
H           32.38150235569182       -4.23502307655519       -1.52405219298203
H           34.26046279427573       -2.32692954829291       -1.19713206800922
H           34.19457866642932        2.34752193072863        1.23781829445702
H           32.27272284179249        4.20328133514648        1.61414201030538
H           28.22163293194179        4.63013014392933        2.36019998293248
H           28.18579934258490        7.06361393965767        2.85211194996520
H           31.23683530106426        7.70574940411371       -0.08723576657033
H           31.26842637638157        5.27444069607349       -0.58822818377135
H           27.25979163795778        4.49312881593328       -0.14252484964216
H           25.39027266234577        2.60226962900709       -0.60581380536198
Co          61.70966092731950        0.05875715805617       -0.04627543234026
C           65.07620135613590        0.11423761544164       -0.20710281392018
C           64.42852627095836        1.19297318412235        0.35628888504845
C           65.09645555678834        2.32779467864970        0.91736228695310
C           64.13998129730162        3.24649658525455        1.18888984815820
C           62.89031431852158        2.67811282054196        0.77393063554899
N           63.07077454715511        1.39209647320573        0.33437554746594
C           61.69365287902480        3.38012321897994        0.70212428534708
C           61.68209438190364        4.82195514006617        1.03043628046815
C           60.85450020097015        5.30536728059833        2.04872092084861
C           60.83736208154154        6.65241733037599        2.36083795518926
C           61.65076049418926        7.52548205294432        1.64412153512880
N           61.63343679077807        8.94215318002564        1.96490313556902
O           62.35277323797079        9.66700045480938        1.32678991990406
O           60.90069779233826        9.30429918220326        2.84926222218964
C           62.47945366087881        7.06535905639309        0.62479273546903
C           62.49344019554304        5.71553085087101        0.32437419305461
C           60.50808276202860        2.77041922601985        0.31641828696645
C           59.26519788060412        3.45911380972449        0.13743882789346
C           58.31889627661108        2.51067525746335       -0.06471374023848
N           60.33295060675428        1.41603932478590        0.15397232151137
C           58.98682148995506        1.24885959178181       -0.01388259667971
C           58.31999507138122        0.02130033749114        0.02376605652359
C           59.01376751549349       -1.19151666304345        0.06048186395207
C           58.37735957348639       -2.46504360071381        0.17745848701266
C           59.34024918576364       -3.39919656648125       -0.01245980092750
C           60.55900990823062       -2.68984679409154       -0.26369313619796
N           60.35721166178222       -1.33404930790391       -0.14359345728839
C           61.73605805684451       -3.28284914107975       -0.69693497162684
C           61.75090380146060       -4.73569875452769       -0.97229940368603
C           62.64113055507468       -5.57393428612192       -0.29393203269861
C           62.65784595367555       -6.93339245340313       -0.54701879496366
C           61.78080365466204       -7.45887978263956       -1.49159503646181
N           61.79685967210295       -8.88560110080405       -1.76437546323549
O           62.58372893282645       -9.56129112339304       -1.15256562005627
O           61.02242736649094       -9.30451776936969       -2.58591745367019
C           60.88924414529468       -6.64146849410160       -2.18034636183112
C           60.87644720514292       -5.28424194128570       -1.91559407141704
C           62.89970965755546       -2.54835661284540       -0.89100169689016
C           64.12244924297056       -3.08900203035157       -1.40982391753816
C           65.06331373811881       -2.12460910104208       -1.27841198808395
C           64.41320461056509       -0.99475092884624       -0.68682150288240
N           63.07356631817376       -1.24204604712197       -0.51566394760675
H           66.15787067249767        0.13458123140283       -0.26570444387552
H           66.16149568944273        2.39541849562058        1.07114689952874
H           64.25681556566211        4.22479068772750        1.62608357638988
H           60.23462130268458        4.61340733937753        2.60682355171195
H           60.20429895061638        7.03539161603495        3.15220974744261
H           63.09905782153664        7.76642280947733        0.07860956468174
H           63.12364296987666        5.34709346992928       -0.47664662111237
H           59.14356070991217        4.52971032156990        0.16263257004319
H           57.26025393026978        2.63713670799387       -0.22381799271081
H           57.32742992994827       -2.60866487051408        0.37517830102110
H           59.24401371239383       -4.47240374900919        0.01064639377040
H           63.31054809382908       -5.15409969765552        0.44779864462315
H           63.33917189992221       -7.59190982535601       -0.02181048038526
H           60.22020584152096       -7.07462296625224       -2.91414214476793
H           60.19635791203171       -4.63515710555354       -2.45475019630434
H           64.23267665794462       -4.08014279907541       -1.81894396748744
H           66.10837856464654       -2.15963260654466       -1.54134673135628
C           38.39569443380933        0.04153651668431        0.00686027895510
C           37.16690112349113        0.04511257033676       -0.00299469777828
C           35.82333487923309        0.03972130856452       -0.00585526507725
C           34.59935362948853        0.03207949731153       -0.01456668720025
C           39.73887120493819        0.04014008044024        0.01111374598716
C           40.96333805451356        0.03594870229376        0.01184616265968
C           54.35112604675668       -0.01155530849133        0.04265234415050
C           53.12176318690340       -0.01551672544975        0.04647117621454
C           51.77946822366872       -0.01836446267952        0.04365768778237
C           50.55457439285967       -0.01644376164459        0.03852152053960
C           55.69368968848622       -0.00178105275633        0.04271746459550
C           56.91821420678028        0.00633078714096        0.03621928973416
Co          45.75954208576476        0.00748346969763       -0.02488081585646
C           42.36504326616294        0.02816868031543        0.00795064852425
C           43.04101089086671       -1.15175724268551        0.33213250003026
C           42.38390222452024       -2.36156970690596        0.71276804303182
C           43.33317119044155       -3.32871423295019        0.73268882367225
C           44.56447110771530       -2.70432336483703        0.35358425200161
N           44.38411801297112       -1.35245295363010        0.18032158912094
C           45.74023948202044       -3.39054465512650        0.07963068171865
C           45.72882043302723       -4.86919588219626        0.10973587612651
C           46.57548890473888       -5.56432563706889        0.97856760284881
C           46.56473182957325       -6.94683185569875        1.01330619249620
C           45.70486061907670       -7.64035004885441        0.16663626183687
N           45.69179583762657       -9.09306797490630        0.19710573229885
O           44.93568734371010       -9.65893856823665       -0.54968329333820
O           46.43806372783155       -9.64065739147861        0.96705858579914
C           44.85685229883092       -6.96748144258084       -0.70823357410603
C           44.86998830499230       -5.58476278829619       -0.73016878002754
C           46.92574816937427       -2.73254352075803       -0.21830385636794
C           48.15330727502405       -3.38731023713930       -0.55593844365820
C           49.11491832791401       -2.43197427816507       -0.56324167866086
N           47.12261961395064       -1.37701607447260       -0.09624749416866
C           48.46845641949743       -1.19898194901639       -0.24454124934361
C           49.15389816597455       -0.01043188730905        0.02722550658441
C           48.47562875387916        1.18690345714312        0.27636924783379
C           49.13084873213479        2.41843868800711        0.58363365231331
C           48.18231021519127        3.38524528163601        0.53381747827008
C           46.95328921331652        2.73810224560344        0.18682851430332
N           47.13406641834417        1.37756094541728        0.10272802981916
C           45.78018364915928        3.40514198795906       -0.13936586113742
C           45.79352676263619        4.88218860569257       -0.21279990198909
C           46.65893201660106        5.53450056871179       -1.09639282397873
C           46.67143166954588        6.91500759482532       -1.17688803056926
C           45.81599391602769        7.64999674570958       -0.36126453514655
N           45.82605473215881        9.10090153826079       -0.44101203482694
O           46.58866987703199        9.61035024308012       -1.22113394252980
O           45.07065426411488        9.70340222518837        0.27717652275961
C           44.95079228368095        7.02032454004946        0.52876933868761
C           44.94105827489746        5.63900940916033        0.59677453794236
C           44.59532191720901        2.72924825925430       -0.39890350661008
C           43.36949474930609        3.36127435591428       -0.78294141460385
C           42.40715050392937        2.40811020151978       -0.73096930574511
C           43.05169106076053        1.19792404768992       -0.33137975006888
N           44.39734345307006        1.38484297022776       -0.18978784108371
H           41.33022956591577       -2.44566331071314        0.92412578554928
H           43.21989097296277       -4.37191503159694        0.97853689196726
H           47.23149467548482       -5.01215075959445        1.64132597502426
H           47.21152070775035       -7.49454443011942        1.68814110392624
H           44.20026059749330       -7.53118648598016       -1.36004086900901
H           44.22288251753356       -5.04885721907244       -1.41468725969068
H           48.25623163304586       -4.44103203002056       -0.75751509818451
H           50.16994435823895       -2.53797956711129       -0.75738835520673
H           50.18302303989689        2.51562186205914        0.79682898826205
H           48.29456216210497        4.44215124824385        0.71244759317453
H           47.31130831747749        4.94992852309523       -1.73450083497123
H           47.33277140451177        7.42944153129586       -1.86367249842422
H           44.29847174631348        7.61594135374540        1.15599921584554
H           44.28049632734217        5.13695672159006        1.29396563210333
H           43.26777808818899        4.39960082245624       -1.05320587635471
H           41.35287609474520        2.50180316613056       -0.93524400623889
