130
 energy: -258.603337397850 gnorm: 0.000809503464 xtb: 6.5.1 (b24c23e)
Ni          14.71397737851171        0.06417499647931        0.01565048759616
C           11.31958978269602        0.08612380581319       -0.11013352982710
C           11.97123455751704        1.29878254830562       -0.03331626496824
C           11.28818033389972        2.55506927747432        0.01878082943340
C           12.24228097762850        3.51304729540660        0.07145513633070
C           13.50831843083286        2.84068754979948        0.04300891620600
N           13.33151783603744        1.48010097393585       -0.00526147213233
C           14.73035571198493        3.49899185364023        0.07675098566467
C           14.73929670964921        4.98351109622174        0.09918837727438
C           14.23231044268155        5.70199328124924       -0.98328033659335
C           14.24856223773899        7.09194610393225       -0.96557629088601
O           13.76623109271821        7.80079568896177       -2.01519214248148
C           14.76592785004630        7.76716079725179        0.14108224165322
O           14.76647434417946        9.13740672753143        0.13126164869764
C           15.26732336635494        7.04888740283874        1.22356691377577
O           15.75427757792925        7.78094471723590        2.27434551430298
C           15.25957208747031        5.65950710553920        1.20574616771137
C           15.94514958207329        2.82757620128242        0.09159663602125
C           17.21458346086990        3.48926358497421        0.09070868530884
C           18.16093604054344        2.52096532273964        0.12244686926376
N           16.11423003578192        1.46076313625120        0.10003297162399
C           17.46839675427032        1.27228350870786        0.13087187488681
C           18.12715144692438        0.04072495416812        0.16504320925178
C           17.45093386630712       -1.18158591360058        0.14142539847628
C           18.12626939483093       -2.43997562241571        0.15507220374089
C           17.16902149769290       -3.39487772833443        0.08373849994920
C           15.90972386904719       -2.71558249330390        0.03690996114829
N           16.09585051322073       -1.35118251824336        0.07007773035356
C           14.69087703918157       -3.36950717279292       -0.07270359612566
C           14.68363432367492       -4.85417542218975       -0.11572361053571
C           15.10035576381778       -5.58784865722786        0.99445336314154
C           15.09361322062336       -6.97739709557853        0.95292205947854
O           15.48973723740225       -7.70148548549270        2.02785822945909
C           14.67701525858843       -7.63620773466647       -0.20495150928801
O           14.68634792220113       -9.00649790290538       -0.21845562353083
C           14.26428957130293       -6.90224850466926       -1.31393936189404
O           13.87389515374273       -7.61875406484411       -2.41473562473817
C           14.26133676704384       -5.51322349435620       -1.27269176922532
C           13.47898851887312       -2.69559346922626       -0.14171959232102
C           12.20729046615397       -3.35351521669909       -0.21401409360392
C           11.26370020721567       -2.38345451995857       -0.22277922985250
C           11.95891814500011       -1.13505169901624       -0.14934096701294
N           13.31607518535815       -1.33317484880871       -0.10088637781141
H           10.23620777058591        0.09302222054599       -0.14035177740304
H           10.21568694773067        2.66763362713926        0.01837096322798
H           12.11428437881575        4.58151297784661        0.13162658279498
H           13.84101805700819        5.18797247507304       -1.85166825348852
H           13.86677033807681        8.74639837659238       -1.81638503221189
H           15.15785447990457        9.44211262615333        0.96540000526810
H           16.08071319781670        7.20189424215438        2.97552206687193
H           15.64109331246888        5.10648284322260        2.05601629490113
H           17.35433203963761        4.55740505702486        0.05962316297376
H           19.23372053169175        2.62660358259702        0.13274540843099
H           19.19638640853126       -2.56009199257806        0.20442223033998
H           17.29435473456016       -4.46477770354892        0.05548584730069
H           15.41593809750921       -5.08624285423550        1.90010550981753
H           15.41490130994843       -8.64410125370530        1.80505762361213
H           14.37200719570359       -9.29893004603494       -1.08875124793837
H           13.60930850496294       -7.02906500507637       -3.13283296457790
H           13.94935736410101       -4.94740117855946       -2.14268186308906
H           12.06808986479441       -4.42208274108771       -0.24122173119566
H           10.19083570089573       -2.48362721678645       -0.26648573270702
Ni          30.71167980750961       -0.06656504847016        0.01355935720678
C           34.10591574648232       -0.07455374515410       -0.11676463669383
C           33.45396668187345       -1.28786082065497       -0.17960468425898
C           34.13668460608496       -2.54206463296056       -0.27140379758761
C           33.18231577337377       -3.49948108451860       -0.32920637515300
C           31.91646987813079       -2.82792404463641       -0.28070398116594
N           32.09364486941470       -1.47080867264915       -0.17274259880175
C           30.69427492693887       -3.48549781315534       -0.32139414071799
C           30.68492143889050       -4.96307053421487       -0.46693689731030
C           31.18941385777786       -5.55479827232513       -1.62462512925577
C           31.17275425803371       -6.93788497643891       -1.76380607102167
O           31.65259889423157       -7.52383540827623       -2.88772993226212
C           30.65762436785860       -7.73362659002794       -0.73925156920311
O           30.65674395604809       -9.09403036774441       -0.90357343928773
C           30.15876771717465       -7.14207613572488        0.41845269152529
O           29.67397396427625       -7.98798000770100        1.38104152563909
C           30.16679673109384       -5.75955043355750        0.55741309258656
C           29.47965396274523       -2.81991662324587       -0.22980506611642
C           28.21010972463874       -3.47711937879644       -0.30482196116046
C           27.26395214898763       -2.51848839792218       -0.16339678450898
N           29.31084199074382       -1.46288349703300       -0.06617647765632
C           27.95671666779803       -1.27884051626469       -0.01414740375182
C           27.29812900882630       -0.05894006961918        0.15924343505724
C           27.97454184101829        1.15805690542996        0.27417789613670
C           27.29956608092182        2.40696141101245        0.43069746974376
C           28.25708532229835        3.36354089947329        0.46806060902821
C           29.51614536759221        2.69359958349905        0.34405330880038
N           29.32968400932623        1.33426862560946        0.22275941745130
C           30.73514476825146        3.35536227563374        0.30924697269125
C           30.74277350420866        4.83540014294923        0.43506834469369
C           30.33028673291162        5.43799703237718        1.62296444578110
C           30.33758319517563        6.82325038503479        1.73977778865948
O           29.94582089442438        7.42038146187054        2.89158248496030
C           30.75021803498575        7.60945725207557        0.66280854233456
O           30.74143741729642        8.97240127464178        0.80528997190924
C           31.15851504983455        7.00639392982640       -0.52398372965386
O           31.54499174869832        7.84347691792010       -1.53763189618450
C           31.16119525222962        5.62167076608782       -0.64095739958931
C           31.94687343192335        2.69332661959520        0.16469884470146
C           33.21866507183564        3.35500387350839        0.16797230088515
C           34.16218478894272        2.39192738334874        0.05095502115458
C           33.46678952158270        1.14332820696532       -0.01768050451085
N           32.10961446579441        1.33492772404868        0.05199063519288
H           35.18932536399791       -0.07828818616893       -0.14646745612390
H           35.20915062423649       -2.65416183834173       -0.28430606324934
H           33.30994310612549       -4.56785130567805       -0.39189849198420
H           31.57908649622201       -4.94609421180773       -2.43026481106822
H           31.55220162159728       -8.48582498756045       -2.79665484703904
H           30.26722777192566       -9.49086519298874       -0.10820586111806
H           29.34958813435123       -7.49171747473209        2.14393497236750
H           29.78717579725406       -5.30590692925783        1.46540271470617
H           28.07020328096925       -4.53490804691327       -0.45624412009044
H           26.19115612064842       -2.62449504251957       -0.16449835787655
H           26.22949055818476        2.52095110575105        0.49373886764772
H           28.13222739614799        4.42976783524147        0.56177057350805
H           30.01755500456473        4.83660102350195        2.46671761471963
H           30.02039798056709        8.38221557540289        2.77722614899872
H           31.05240495830769        9.36193680825065       -0.02735649464157
H           31.80628086085653        7.33932772261629       -2.31926618049302
H           31.46999587931645        5.15843651283488       -1.57069819207937
H           33.35784893538820        4.41984424228405        0.26125836941074
H           35.23509891155906        2.49618240164977        0.01987754755319
C           23.32643090175002       -0.02324898528210        0.24617687457551
C           22.09884013768449       -0.00578180763172        0.24745443093699
C           20.75429194794140        0.01246746382389        0.23371246037369
C           19.53146392996021        0.02953072152474        0.20732985750103
C           24.67098277132524       -0.03857386467548        0.22985512043307
C           25.89381883678650       -0.05254354148292        0.20257003181241
