193
 energy: -383.375872498375 gnorm: 0.000392395066 xtb: 6.5.1 (b24c23e)
Co          33.35457894915982        0.01643400496163       -0.00307632569082
C           29.98495292674784        0.04476321036515       -0.01428964864718
C           30.64986976423788        1.22589644974470       -0.26608289981973
C           29.99433210776775        2.46944325725646       -0.53523343586713
C           30.95433252489679        3.42366169259156       -0.52815964130761
C           32.19674208630600        2.76161063307128       -0.25449917840314
N           32.00482506025379        1.40769285705798       -0.14729276666137
C           33.37782751057284        3.42237773780827        0.05830919283706
C           33.38505349769122        4.90624515663090        0.08383597214332
C           33.19416026954366        5.62532888289934       -1.09539436066947
C           33.20435505974459        7.01532288363716       -1.07199729506230
O           33.02765005427056        7.72565816180504       -2.21253309254975
C           33.39790125285730        7.68896139047228        0.13511298661658
O           33.39959597015110        9.05928568414084        0.12779969848630
C           33.58345442488577        6.96927688411150        1.31264109078985
O           33.76229120350084        7.69979774671577        2.45788545288020
C           33.58163723352072        5.57981187230270        1.29164002736284
C           34.54462313344403        2.73719245693630        0.36082418867745
C           35.78596947281495        3.36920043598063        0.69422685903830
C           36.72955481527037        2.39723113535396        0.70898855784478
N           34.72442286140874        1.37990789224013        0.21311699882162
C           36.06544982425073        1.17740885937550        0.37401189575611
C           36.74222031790084       -0.01037619466026        0.08069243793188
C           36.06188182485140       -1.18371406549180       -0.25824865894136
C           36.71610893300969       -2.39788041020172       -0.63095118925855
C           35.75451908007270       -3.34948988672305       -0.70590098502216
C           34.51745588517606       -2.71501906197401       -0.36122859658159
N           34.71263883682279       -1.36720498569002       -0.15676056600536
C           33.32641811665874       -3.38981152584036       -0.14071579684322
C           33.30633603758891       -4.86880452100079       -0.21608460459204
C           34.13444803025804       -5.62685108391349        0.61241952935628
C           34.10698383844308       -7.01476372786903        0.54443085154570
O           34.90021093781581       -7.76063482374313        1.35155030638479
C           33.25593092266478       -7.65015829624820       -0.36140977894417
O           33.25257428777784       -9.01930936485670       -0.40890032267667
C           32.43295927687787       -6.89331897176252       -1.19180155065230
O           31.62877320440364       -7.58717978087394       -2.05751831315595
C           32.45088267693619       -5.50641329738573       -1.11948485909114
C           32.14748813111448       -2.71360937697863        0.15251470768701
C           30.90315444145871       -3.35459843300826        0.46239985616683
C           29.96006046638075       -2.38316676602636        0.49832770565534
C           30.63100032333649       -1.15029036018366        0.22008782147521
N           31.98031560196533       -1.35551570518022        0.07413469232873
H           28.90135577785289        0.05541523956799       -0.00454098807306
H           28.93259570052606        2.57965876838451       -0.68886161861871
H           30.84169353735241        4.48623153085614       -0.66970649341658
H           33.05576919969116        5.11231913690676       -2.03827630839723
H           33.06785947263668        8.67103716257522       -1.99247384804226
H           33.54458467800330        9.36285220790041        1.03808192311277
H           33.87976203652123        7.11942737958899        3.22135528200305
H           33.71311000432028        5.02562180985478        2.21350896058483
H           35.91318933894041        4.42494306502859        0.87027108453908
H           37.78631097433854        2.48571855289342        0.90359833762298
H           37.77587955291395       -2.49413125830983       -0.80409369835252
H           35.86274950088270       -4.38991394332853       -0.96546981609737
H           34.78684082111263       -5.14560806724470        1.32949000620035
H           34.73610284857075       -8.69849254493792        1.15884121731665
H           32.61044513319304       -9.29313052149671       -1.08307014401458
H           31.09913099150899       -6.98275628115354       -2.59383967676984
H           31.81758799794205       -4.92388158207867       -1.77820167126399
H           30.78025978597136       -4.41247672087187        0.62961809793408
H           28.90205640951970       -2.47464457418879        0.68633253745247
Co          60.10018217858991       -0.05759773689216        0.05217010595385
C           63.47306778560053       -0.09334601530521        0.12808230896078
C           62.81663771977459       -1.24339220766693       -0.25438030058176
C           63.48411137713126       -2.45359990787217       -0.62572824272899
C           62.52422832211516       -3.39624086306380       -0.77286937395884
C           61.27063622332981       -2.76101919656392       -0.48668750121121
N           61.45772573689231       -1.42962763496443       -0.21498116534037
C           60.07584780796253       -3.44865808471052       -0.31750309495703
C           60.06917818666217       -4.92314280460867       -0.48599168029867
C           60.32209403531744       -5.48326000359654       -1.73762236993791
C           60.31477248536225       -6.86437368735164       -1.89624514739674
O           60.55282003690008       -7.42054878508033       -3.10881805399042
C           60.06123199022679       -7.68889434071900       -0.79880243540922
O           60.06392038799706       -9.04656688092646       -0.98459397148013
C           59.81395460308816       -7.12811749788810        0.45150538237486
O           59.57896307551186       -8.00087538203339        1.48134503077177
C           59.81369541457849       -5.74785782560640        0.61217667110760
C           58.89800574256058       -2.80354882153434        0.02669537306679
C           57.64838105301006       -3.47181244244825        0.23476514992027
C           56.70720959755386       -2.50823618948120        0.37670371028737
N           58.72380427827677       -1.43815581264162        0.07073592711493
C           57.38045646377719       -1.25573438377878        0.23803514567190
C           56.70742992529014       -0.03641222326066        0.11793853127522
C           57.38933660667092        1.17086529938467       -0.06021514779450
C           56.73274107941634        2.42137287814560       -0.27519270559870
C           57.69578257283915        3.37376012028300       -0.25350283141118
C           58.93568401514217        2.70154085441381       -0.00361407988335
N           58.73986561057310        1.33896690807448        0.04794999809192
C           60.13041370927157        3.34863428386240        0.26985478535016
C           60.15308418734598        4.82796573517948        0.34787213642781
C           59.35108153609136        5.49527881580612        1.27412534701486
C           59.38353885275674        6.88256051452063        1.35289181059275
O           58.61628419488936        7.53981840661260        2.25611185975015
C           60.21323865631656        7.60853610075347        0.49659817626181
O           60.22241488140314        8.97471413488163        0.59501955854968
C           61.00997027078525        6.94229085364320       -0.43139055355885
O           61.79438324492164        7.72229102054374       -1.23984231970135
C           60.98748299479691        5.55542946626585       -0.50568044753030
C           61.31018352353526        2.64675186418618        0.48856463232459
C           62.55211139121248        3.25712214625611        0.86283335583418
C           63.49233870311404        2.28313148403186        0.83179839960322
C           62.82241376983235        1.07992303682948        0.44326228086350
N           61.47593206649515        1.30058347655461        0.29274269145039
H           64.55583506362615       -0.10884526403824        0.17072458111592
H           64.55199609842495       -2.55204018340526       -0.73953502721269
H           62.64278537836927       -4.43700031993955       -1.02678352361049
H           60.50748221761298       -4.85224435178803       -2.59716414184820
H           60.50224802438662       -8.38633499451480       -3.01690962541672
H           59.87129628997744       -9.46533481277393       -0.13061072971736
H           59.41875483610002       -7.52397516567426        2.30621156485921
H           59.63521085172751       -5.31829857159953        1.59089421292239
H           57.51494240175828       -4.54121474943624        0.24850274561699
H           55.64659329650208       -2.61911213768591        0.53521854445209
H           55.67088379701003        2.53827682210245       -0.42044612429789
H           57.58708810989009        4.43754963524412       -0.38775408369851
H           58.71594982891257        4.94181287186420        1.95359861562355
H           58.77751931702371        8.49279549751864        2.15822420867794
H           60.84590090926569        9.31813872966145       -0.06466714032336
H           62.30698232923872        7.17731062643406       -1.85116552962626
H           61.60122201435847        5.04420573905089       -1.23802893995729
H           62.67486584655448        4.29753965842223        1.11690572030664
H           64.54810645183723        2.35515816328661        1.03968405037207
C           39.36653655380848       -0.02738898453139        0.12599136200242
C           38.14351607204491       -0.02010107498270        0.10784687409628
C           40.71376695667725       -0.03093196943162        0.13306915600348
C           41.93728161224697       -0.03103869208769        0.12896052175660
C           52.73546120159995       -0.01254601066729        0.16372023326325
C           51.51201622706538       -0.00834864923339        0.15409994803281
C           54.08274686434365       -0.01686471555325        0.16104802745330
C           55.30592364209516       -0.02679291344541        0.14529278962363
Co          46.72467508182606       -0.01636568889413        0.09620122942196
C           43.33730260717185       -0.02639700116563        0.10759738126928
C           44.02220883264913        1.13614529360372        0.47952122675206
C           43.38034390244052        2.33061936394388        0.92545813344306
C           44.33028863953076        3.29936875552833        0.93887418372240
C           45.54677698673378        2.69029690573717        0.49576890734363
N           45.35718796997183        1.34623199787195        0.28107754376080
C           46.71475459498711        3.38229971390582        0.19593327109466
C           46.70253945859532        4.86031008856715        0.23843387268537
C           47.59811910223495        5.55271991370667        1.05543327199105
C           47.59366153313288        6.94355848908304        1.10605509339008
O           48.45105543719879        7.62807535059390        1.90625322928741
C           46.68908035247865        7.66361579853253        0.31802485907845
O           46.66634475649457        9.02045895048599        0.33805614602456
C           45.79763146158444        6.96345665701971       -0.50012690819765
O           44.94221703241985        7.72915587643638       -1.24892742203398
C           45.79094429264805        5.57679457624432       -0.54075116292041
C           47.89227371500568        2.72155255326442       -0.12968918049487
C           49.12153985273940        3.37090788178836       -0.47100039314494
C           50.08277661525678        2.41415005543696       -0.46716760582615
N           48.08655958380718        1.36389587517190       -0.01411397381554
C           49.43318102236802        1.18363323803293       -0.14765657185758
C           50.11207637872932       -0.00974995358951        0.12544387699129
C           49.42569746579952       -1.20989745838079        0.34138830216249
C           50.06654631901930       -2.45334006489373        0.62818868066223
C           49.11753505998836       -3.41504455995459        0.50967118548662
C           47.90178260889305       -2.75229988408456        0.14793226740195
N           48.09128260473083       -1.39151519029771        0.11305610071246
C           46.73553232825739       -3.39837682826059       -0.24317956229666
C           46.74681627679806       -4.87160726342357       -0.39085769849676
C           47.64707861986825       -5.47459662505910       -1.27074434256459
C           47.64675175924527       -6.85583834910423       -1.42436917844609
O           48.50077155211178       -7.45212805184477       -2.28853848673572
C           46.75223924769505       -7.63639654337632       -0.68873083195622
O           46.78860211322403       -9.01123626882322       -0.86824815624854
C           45.88191369004461       -7.03871982388160        0.22114420957312
O           45.03291406649721       -7.79918623539322        0.96946503146122
C           45.86546666514172       -5.65507433344564        0.35541569668693
C           45.55876120255528       -2.70236402059225       -0.48495602625730
C           44.32989830270347       -3.30515879440887       -0.90477464366901
C           43.36852124951663       -2.35674436097773       -0.78347112468165
C           44.01736807109271       -1.17508515117691       -0.31238998816075
N           45.36399181919185       -1.37013238752208       -0.20036159025205
H           42.33553343797714        2.40684234644539        1.18040851898015
H           44.22554770991072        4.33347551514712        1.22441883400933
H           48.29275777522943        5.00480695767963        1.68204180785939
H           49.02615274926654        7.02713436469383        2.39797900772315
H           45.97569059243047        9.32223941461873       -0.27400819784955
H           44.36641219675946        7.17397801464854       -1.79067577041639
H           45.09967314537858        5.05775579790911       -1.19418599880130
H           49.22780808838643        4.42299008030898       -0.67943333317661
H           51.13880012443357        2.51832568970363       -0.65767951985459
H           51.11085210306905       -2.56245420803483        0.87282458468166
H           49.22181180422080       -4.47827865803196        0.65219786859381
H           48.32897853634265       -4.87614187007115       -1.86082814406706
H           48.35146037899327       -8.41190736155004       -2.25330244351060
H           45.89498475538773       -9.37596699096073       -0.91100777920839
H           45.32362402495463       -8.72212767881396        0.97458444798994
H           45.18669260901707       -5.20181474062321        1.06613250880600
H           44.22425081306793       -4.32460790075826       -1.23811886004622
H           42.31243949875909       -2.43702212953079       -0.98488476743335
