207
 energy: -424.593888199375 gnorm: 0.000815749131 xtb: 6.5.1 (b24c23e)
Cu          28.86951993527395        0.04866331456279        0.01253113065788
C           25.46331859034211        0.10908160955925        0.06074977163715
C           26.09895328615232       -0.19293893534047        1.25546325599305
C           25.42428653975173       -0.51263461413232        2.48123701081641
C           26.38332271866751       -0.75262380923275        3.40889561284123
C           27.65376484591404       -0.56938565594102        2.76001358511205
N           27.44988611071129       -0.23638503055310        1.45232186240388
C           28.89976987931104       -0.73384275785821        3.36932060252774
C           28.91212656239264       -1.08195092935295        4.81183922127347
C           28.38580873638761       -0.19655753221025        5.75565760314067
C           28.39263962835040       -0.51885283312049        7.10276530843502
C           28.92468280291633       -1.73743045884409        7.49221383106982
S           28.93896697325799       -2.14995822402589        9.19576484151705
O           28.91564187347256       -0.96835183151386       10.00679670417010
O           27.47573385303471       -2.85090062220724        9.27955502076437
O           29.92963982619587       -3.14880763891268        9.47069011223318
C           29.45623405139645       -2.63493596956963        6.58045970511372
C           29.44956354150058       -2.29948056269208        5.23654134054314
C           30.13361243329151       -0.59867721954342        2.72974555432326
C           31.41101352709989       -0.70535150440208        3.37658623098971
C           32.35643422441348       -0.49229655098121        2.42684703979062
N           30.32082277937884       -0.31369898771862        1.40355058190739
C           31.66461183048651       -0.24864157768077        1.19656334931059
C           32.29955276414850        0.00909607616376       -0.03089775425995
C           31.64008771923010        0.27415894524408       -1.24375200655178
C           32.30593349090613        0.49053215450533       -2.49320788130533
C           31.34172411186058        0.71426651236463       -3.42151201640845
C           30.07906478247747        0.64509572584459       -2.74148975125419
N           30.29331325232641        0.36775506552569       -1.41776969132877
C           28.83267891319851        0.81041607746236       -3.34906304929646
C           28.81387084231904        1.14138733529918       -4.79537743876883
C           28.21921688970010        0.26836458969151       -5.70979083957821
C           28.18914318313977        0.57688728078325       -7.05976914601215
C           28.75783405950369        1.76745084297220       -7.48247827127608
S           28.70458643959193        2.17172682700418       -9.18768032932269
O           28.85336541579612        3.58385864424195       -9.38821467260682
O           30.09089988501845        1.46079911143403       -9.64728873103731
O           27.61305802981935        1.49967355951034       -9.82726310333447
C           29.35265694892447        2.65443623793898       -6.59997548002604
C           29.38024365326988        2.33378712250904       -5.25267388180884
C           27.59952325981956        0.69434671227531       -2.70315522269638
C           26.31854555513708        0.92279772079728       -3.31622582602696
C           25.37846627777561        0.72546012604998       -2.35968632966537
C           26.07563509103518        0.38515934308331       -1.15219778410121
N           27.42111887551845        0.37625441343747       -1.38806240640950
H           24.37858763961529        0.12999589615685        0.07622616637127
H           24.35311388895201       -0.55411033391935        2.59981841720562
H           26.24975483687929       -1.03924293560936        4.43958259862584
H           27.98390002292604        0.75599429242985        5.43060710089309
H           27.99732267487395        0.16429158501537        7.84400521175741
H           27.30662602464563       -3.16459207821663       10.17624877789887
H           29.86920364611293       -3.57630518522593        6.92053462678094
H           29.85140212189968       -2.99135095500596        4.50551139946779
H           31.56091657197890       -0.90307058456690        4.42558517095859
H           33.42856601431518       -0.49201136137632        2.54075205881703
H           33.37462677729628        0.46453652649445       -2.63371656247379
H           31.46963693963860        0.89681025754058       -4.47618853711077
H           27.78844716488499       -0.66229166434553       -5.35926468972576
H           27.72841988116054       -0.09101770260007       -7.77669832110181
H           30.34042933308553        1.75738373115916      -10.53121337178781
H           29.77725697502171        3.58182892751126       -6.96340019331627
H           29.82824411272376        3.02015390663303       -4.54362998513736
H           26.16584322845370        1.20999195815619       -4.34404890427279
H           24.30674225174208        0.80829302971156       -2.44745056150883
Cu          66.09507877452945        0.04145409725250       -0.00775193144654
C           69.50117545151608        0.13210143765702       -0.02957505089234
C           68.86466922368636        0.29067737080406       -1.25103111659222
C           69.53866585566779        0.45125277085381       -2.50784044083273
C           68.57914980987890        0.56610129285822       -3.45861987904314
C           67.30907904275929        0.48831712822272       -2.78834847780366
N           67.51346464219090        0.31534228937467       -1.45003505328548
C           66.06319790261949        0.55164703308182       -3.41626362742759
C           66.05130849277579        0.76387199583406       -4.88499449856625
C           66.56797488993747        1.94162194574868       -5.43062373644159
C           66.56312017048752        2.14307158874140       -6.80101529493160
C           66.04289348599221        1.15145770923169       -7.61691544079466
S           66.03185517952666        1.40145015636859       -9.35182629210735
O           66.04916465032412        2.80007522547900       -9.66452450084196
O           67.49833972933683        0.78777834243966       -9.68659532539640
O           65.04708532732809        0.57173295212483       -9.98158565540678
C           65.52087008541316       -0.02553784567399       -7.10551327878821
C           65.52532302444781       -0.21358277851043       -5.73313021716949
C           64.83001621518861        0.43051048578477       -2.77294708212594
C           63.55213763337749        0.55826042481705       -3.41475460912556
C           62.60723556162598        0.39973411254717       -2.45392624361077
N           64.64373584050983        0.20610589174755       -1.43486425504187
C           63.29979827356416        0.18052770328782       -1.21954583328408
C           62.66523556613262       -0.02917364632599        0.01719024015063
C           63.32561504037587       -0.21968401510194        1.24334795678369
C           62.66062917790195       -0.47608182057532        2.48555683661318
C           63.62532363235379       -0.60553683680880        3.43109823153195
C           64.88737487601065       -0.41892025521993        2.77261536854071
N           64.67249233674210       -0.19264864790499        1.43914444212495
C           66.13389271203648       -0.48689798490098        3.39803726771374
C           66.15432169461103       -0.71308647461130        4.86443259647331
C           66.75029092089456       -1.86190454813636        5.39070724563079
C           66.78336755471608       -2.07350109135156        6.75915425789143
C           66.21625868781187       -1.12315635776078        7.59265071084793
S           66.27456077753590       -1.37595685315908        9.32667014797239
O           66.12900986492927       -0.13697198442563       10.03387493634671
O           64.88820761039260       -2.20499941202534        9.49691962055025
O           67.36679389954871       -2.23694010601994        9.66993587003028
C           65.61975639190391        0.02661332883431        7.10109923335738
C           65.58918515281768        0.22600077220062        5.73063972378122
C           67.36639520027289       -0.35422773153711        2.75434229537407
C           68.64734623810348       -0.36475576799325        3.40836221739473
C           69.58686285905289       -0.19129188245731        2.44667873997129
C           68.88930654833736       -0.06323279865893        1.19905397403665
N           67.54401265906858       -0.16351176961321        1.41461483258682
H           70.58574956887726        0.16244680047449       -0.03605489979843
H           70.60982156420839        0.46277318547979       -2.63303338714418
H           68.71215379678897        0.68200980338383       -4.52218558882096
H           66.96100721095505        2.70873420334832       -4.77365379274838
H           66.95116068610803        3.05641974090715       -7.23416017247748
H           67.66021886664693        0.80967995697922      -10.63757734017814
H           65.11692506956567       -0.77696786184650       -7.77226206432915
H           65.13099826995808       -1.13136290294777       -5.31273096891915
H           63.40154039412577        0.75838089249103       -4.46319154378396
H           61.53488887330640        0.43298599334782       -2.56059085973735
H           61.59212107640175       -0.55384221642824        2.60698896355486
H           63.49819143561344       -0.82140807786756        4.47953704233088
H           67.18001731481267       -2.59716068182315        4.72042044712657
H           67.24539666874304       -2.95864479944650        7.17793302168604
H           64.63649705511182       -2.24603995725703       10.42724146351076
H           65.19633727888927        0.75422278337815        7.78207496254530
H           65.14007266311972        1.12550438701533        5.32599878344065
H           68.80035195206021       -0.47759338612662        4.46951738372635
H           70.65843851505699       -0.14323450760251        2.55874206553938
C           33.70590254283267       -0.00080547000334       -0.04620666746147
C           34.92998944322454       -0.00623061450494       -0.05418012950982
C           36.27341773604901       -0.00794179382132       -0.06073492757877
C           37.50370018054240       -0.01118369071154       -0.06117231990443
C           38.84224782550258       -0.01379174974905       -0.06142717006587
C           40.07255717985969       -0.01838911256244       -0.05994271275715
C           41.41577839542889       -0.02141541007039       -0.05988966074750
C           42.64006587904251       -0.02757173852974       -0.05178082629484
C           52.32469953524182       -0.06569353394177        0.00801405357463
C           53.54898610308221       -0.06902730702805        0.01658813553796
C           54.89220424460521       -0.07178855999629        0.02344032350039
C           56.12253886426413       -0.07225522669008        0.02884173186730
C           57.46110943603210       -0.07171696736442        0.03140040082783
C           58.69138972780862       -0.06837691942688        0.03177248788524
C           60.03481843552509       -0.05858608925942        0.03087567820064
C           61.25889655894278       -0.04795499261948        0.02769358255594
Cu          47.48269159562829       -0.04404560409243       -0.02600430947539
C           44.04579962810195       -0.03120646346439       -0.04583597223242
C           44.69439729475721        1.04125017320690        0.59194561444741
C           44.01671653569771        2.11026484065445        1.26217996723231
C           44.97312355468059        2.94765736117288        1.73748272193625
C           46.24207449270049        2.39734934464404        1.35285318476040
N           46.03959113382999        1.23243390031870        0.66305874129028
C           47.48399290580316        2.95690449782622        1.66058685785665
C           47.48264242628655        4.25488339891845        2.38042112647788
C           48.03521493151599        4.35394212381778        3.65950626447087
C           48.03384681524882        5.56371669385632        4.33439446421773
C           47.47776642816955        6.67056116647009        3.71396644387506
S           47.48447113439714        8.20799308282637        4.55702593907750
O           47.39647753010369        9.30265109662327        3.63475524562915
O           46.04742177089760        8.08063159428394        5.30382719644496
O           48.51636300502628        8.22929140575218        5.55023760398634
C           46.92769483315514        6.60511589354231        2.44403129215024
C           46.93023995634072        5.38930451914255        1.78056036003220
C           48.72547893995699        2.40058974059490        1.34591912734838
C           49.99535805165583        3.01275706872939        1.61758750465716
C           50.95070204724970        2.16836326594276        1.15285262648557
N           48.92654807910047        1.20427118647422        0.71130650047325
C           50.27158777041541        1.04134486099107        0.58706478989638
C           50.91892317462842       -0.05976716619876       -0.00138115055270
C           50.27001388072725       -1.15421956964276       -0.60028469203794
C           50.94689865927693       -2.28610105687831       -1.15900678141199
C           49.99071985800654       -3.12010996794630       -1.64047046393047
C           48.72268655494526       -2.49689005229291       -1.38568093846465
N           48.92544948036544       -1.30435445759752       -0.74458498731705
C           47.48088233358474       -3.04111935901871       -1.71974448764486
C           47.47845356653503       -4.33467937309761       -2.44737429711034
C           48.04923074296456       -4.43007124373640       -3.71879490798776
C           48.04591461171673       -5.63473995832399       -4.40263586924945
C           47.46923387611542       -6.74035700510069       -3.79895291828160
S           47.47184599943234       -8.27085473393751       -4.65437009991255
O           47.34048828165911       -9.37106431018202       -3.74395724561518
O           46.05780755328114       -8.11114774424537       -5.43825127338632
O           48.52891996614106       -8.30304693432417       -5.62054542057232
C           46.90137689088368       -6.67876584112457       -2.53670858807057
C           46.90642700202321       -5.46797824594929       -1.86405178652613
C           46.23969035424484       -2.47270383631595       -1.42547026249921
C           44.97111083728946       -3.01214567450363       -1.82641766287002
C           44.01560814887893       -2.16952177914557       -1.35858936756605
C           44.69360899581100       -1.10743138666705       -0.67784964659392
N           46.03808642565311       -1.30838073997380       -0.73442097157212
H           42.94629105732476        2.19665327300951        1.35798603911408
H           44.83543803691861        3.85065858672660        2.30984115896187
H           48.45612158525584        3.47347767259730        4.13081046401070
H           48.45962760062653        5.65215737999720        5.32596092055765
H           45.76687480325473        8.94276517497112        5.63376824198142
H           46.51249816914193        7.49300113460795        1.98393638044254
H           46.51521069308209        5.31832084628832        0.78193083511082
H           50.13444311008086        3.97130782935638        2.09060621321840
H           52.02134848022981        2.29279499346492        1.17882350188240
H           52.01662876821845       -2.42042645333708       -1.16950685019434
H           50.12789830307786       -4.07863946880486       -2.11409838971172
H           48.48583344412941       -3.55045419328056       -4.17723288228452
H           48.48562636372498       -5.72021172626542       -5.38836894732369
H           45.77868516838881       -8.96242010044030       -5.79652198813307
H           46.47043657396721       -7.56574348063585       -2.08952339960375
H           46.47767460776673       -5.40035640460200       -0.87100475012265
H           44.83304104010215       -3.91207688549377       -2.40349655349324
H           42.94569903135638       -2.24777192819139       -1.46652393184704
