191
 energy: -377.125847240820 gnorm: 0.000712844535 xtb: 6.5.1 (b24c23e)
Fe          29.77071723652975       -0.00375004655243       -0.08351032398626
C           26.38434727103574       -0.00806353985141       -0.22666060025074
C           27.03154178117593       -1.22624125595889       -0.24024338522081
C           26.35220226629059       -2.48602095437092       -0.27938898853472
C           27.30832506114347       -3.43939096278723       -0.37387522327592
C           28.57066462460503       -2.75795619310549       -0.41002839666519
N           28.38920802830743       -1.40788281969292       -0.28229790741144
C           29.79335197580714       -3.39168221610748       -0.60583899029985
C           29.80007441106047       -4.85432185912054       -0.83579135094310
C           30.46759470030605       -5.70568818498944        0.04951912667124
C           30.46796491201398       -7.07331178620793       -0.15690882691010
C           29.80015154820163       -7.59319577088909       -1.26195457015076
N           29.79654091140502       -9.02890451512178       -1.48313564059628
O           29.20004300229695       -9.44338990554085       -2.44357281755972
O           30.39009356498713       -9.71617968366597       -0.69228218270635
C           29.13471914561702       -6.76214507900129       -2.15860747919953
C           29.13560523300199       -5.39661513405713       -1.94001976771466
C           31.00427724275308       -2.71298515011712       -0.61007055346222
C           32.26823205386881       -3.33000880563898       -0.88423396297088
C           33.21255135944234       -2.37155194711732       -0.72769173307654
N           31.17580876533122       -1.37917742867053       -0.32788385734393
C           32.52327654472837       -1.17302469519750       -0.36429963170570
C           33.18022773836441        0.01513150362836       -0.02252723030678
C           32.49939126774608        1.18934680071499        0.32141844139644
C           33.16251457064035        2.38410824491775        0.74147218225482
C           32.19996850361483        3.32058700497942        0.91836655448613
C           30.95250203543386        2.69771176548670        0.58714874547453
N           31.15032962648741        1.37661817525056        0.26337647733884
C           29.73626905621878        3.36499924984572        0.54944165697249
C           29.71091222868552        4.81699475924938        0.83833390621478
C           28.97575861316672        5.30347588556586        1.92355623182782
C           28.94180575111697        6.65836320271803        2.19843508452663
C           29.64431519696350        7.53512370289031        1.37668874699169
N           29.60635624914441        8.96011696563918        1.65663177590655
O           28.95271780698521        9.32539025888556        2.59972309716526
O           30.23029145313992        9.68798783889490        0.92811277960647
C           30.38065811539357        7.07118914016891        0.29044066255232
C           30.41313928898993        5.71362318750853        0.02779910740825
C           28.53517353269790        2.73362085115261        0.24221502352275
C           27.27897046538911        3.41550947660135        0.11576409162972
C           26.34106350894917        2.46740406536372       -0.11526113909816
C           27.02522907248034        1.20960903010485       -0.13334340765808
N           28.37185711696256        1.38956060372645        0.04917861412018
H           25.30168855218932       -0.00849612110284       -0.28115681897982
H           25.28143070669196       -2.60517312320202       -0.23627814353620
H           27.18254734854775       -4.50916194959193       -0.41266147104317
H           30.97365528599300       -5.28892065145656        0.91246515478048
H           30.97583820714940       -7.74227177222141        0.52736110881356
H           28.62672755095828       -7.19156665085889       -3.01372252986919
H           28.63051504181339       -4.73743923348465       -2.63632282430727
H           32.40484902411670       -4.36084493067877       -1.16754838255756
H           34.28122218361779       -2.45404819070473       -0.84248724154893
H           34.22712739300967        2.47752115769379        0.88264007807757
H           32.31438004438981        4.34104456894536        1.24560142597747
H           28.44061790418350        4.60883365440230        2.56040142186753
H           28.37932324253326        7.04470116420230        3.03988263672892
H           30.91513925723553        7.77512859449404       -0.33604095685781
H           30.97205289611964        5.34064670304179       -0.82247105329153
H           27.14607534976282        4.48269723777096        0.18812919577592
H           25.27927424018047        2.58831110389025       -0.25873500332560
Fe          61.74575318616926        0.06069736720151       -0.04041886112335
C           65.12911740314085        0.10999943467073       -0.18041278790502
C           64.48561183121734        1.23913514269748        0.28292131561644
C           65.16558490004574        2.41403824778217        0.73830544786262
C           64.21132426677345        3.33839648198984        0.99816545346346
C           62.94968450980705        2.73100167498580        0.68427621876714
N           63.12878466835141        1.43125160907480        0.29699218809221
C           61.73132610666909        3.40283084333107        0.70542217132466
C           61.72915128113325        4.84829458985204        1.02427007966469
C           61.02888030528074        5.32538842325832        2.13620530361803
C           61.03404196884166        6.67376989055313        2.44402210025311
C           61.74035960997899        7.55352169113042        1.62883442469221
N           61.75049813323969        8.97061295244981        1.94856831011600
O           62.38083868541496        9.70001197937103        1.22694001955703
O           61.12886591076476        9.32821559269121        2.91578532196204
C           62.43843203151277        7.09968294968021        0.51341682442779
C           62.43174369224499        5.74879810630750        0.21768940565812
C           60.52159374019434        2.78045551755628        0.42828238923092
C           59.26190851529391        3.46079771746024        0.36590122514667
C           58.31525404251287        2.51213378403461        0.16704768682760
N           60.34578022116666        1.43346309065415        0.22215381348369
C           58.99894094214324        1.25830483258308        0.10335298035768
C           58.33927908577517        0.02468813655196        0.03162572096719
C           59.02060667560542       -1.19716642477463       -0.04338405508130
C           58.36150735607107       -2.46561618978259       -0.04788457271104
C           59.32170584179531       -3.40140858789687       -0.24271938852630
C           60.56330358247723       -2.69770668737881       -0.37318187524600
N           60.36619488037825       -1.34870732008129       -0.19891315046745
C           61.77078491804876       -3.29947865810936       -0.69962636359760
C           61.79103586234534       -4.75350902417114       -0.97606893887066
C           62.57080797217029       -5.60770844682279       -0.19032529603348
C           62.60177744194472       -6.96616209976176       -0.44733081846829
C           61.85091547049841       -7.47406641887122       -1.50361315352164
N           61.88675743141903       -8.89888091079922       -1.78358712803520
O           62.57953042172078       -9.58822436676013       -1.08018290453629
O           61.22155928165450       -9.30322897773315       -2.70252243892345
C           61.06849204138535       -6.64079195200003       -2.29786358082102
C           61.03956347653901       -5.28450336185107       -2.02854255085438
C           62.96750545878215       -2.59448121049222       -0.78786157036076
C           64.21551845428682       -3.17282828954464       -1.19656786411200
C           65.15681121969327       -2.20989595893628       -1.05779210333248
C           64.48242292496363       -1.04402591850581       -0.57156427663668
N           63.13727211199092       -1.27959486188472       -0.45274766720600
H           66.21175992239324        0.12779961972285       -0.23199481166289
H           66.23547529056979        2.50098960816827        0.84017382149308
H           64.33806473792416        4.34164908681764        1.37123874449157
H           60.49323988995486        4.62814344309112        2.76977987990406
H           60.50122731333020        7.05241527703021        3.30797708877560
H           62.97610077796684        7.80577183815572       -0.10789752538198
H           62.96225917340194        5.38375240061644       -0.65395904750595
H           59.12946880135180        4.52660674077232        0.45604041982937
H           57.24828196287614        2.63470061539889        0.07416279028471
H           57.30090975485871       -2.60632978867299        0.08405494165626
H           59.20940451880787       -4.47216163435581       -0.29217235193824
H           63.14346050107839       -5.20030134462473        0.63463398707025
H           63.19917418209177       -7.63679577813233        0.15851515569992
H           60.49636099753940       -7.06094188302541       -3.11627342505561
H           60.44513931210577       -4.62295951200018       -2.64780945652973
H           64.34158203302663       -4.18383424201785       -1.54838856901099
H           66.21496185558566       -2.26620069161886       -1.25716271556030
C           38.37856912661508        0.04168490712540        0.01786635066185
C           37.14811641582001        0.03886333988169        0.00897349383732
C           35.80690427628456        0.03489996564813        0.00117998333280
C           34.58131885899770        0.02654542199374       -0.01248155288104
C           39.71947965563602        0.04151970234563        0.02069922623826
C           40.94553389328801        0.03896093209128        0.02116563287008
C           54.37259128502528       -0.01188770027594        0.04729531592701
C           53.14172641632099       -0.02008876645484        0.04351864656992
C           51.80142526279038       -0.02248764761511        0.03664429380333
C           50.57504088080496       -0.02320484186939        0.02586115658456
C           55.71314934456620       -0.00110493638320        0.04625326497200
C           56.93916979332246        0.01115672818645        0.04255085514097
Fe          45.76063441351855        0.00763260076859       -0.00700269688336
C           42.34523230549697        0.03109493371529        0.01470197259693
C           43.01080966127545       -1.18485259202457        0.21894462084685
C           42.33362571785015       -2.41612986619504        0.47817329065591
C           43.28197793532352       -3.38419906946058        0.49195618371095
C           44.53337221801183       -2.73788692380827        0.23137872603363
N           44.35524282014025       -1.38193067811492        0.11136828759308
C           45.73814112822856       -3.41057564795629        0.06407456329001
C           45.72435884086545       -4.89084110609256        0.09170014441472
C           46.44774816294571       -5.58575979340427        1.06531013354550
C           46.43024917314259       -6.96835628058255        1.09933170434169
C           45.68800593030648       -7.66121582312923        0.14748374117909
N           45.66685093069947       -9.11407451788389        0.17826528468057
O           45.00920898356903       -9.67920106750317       -0.65674529253571
O           46.30822249111546       -9.66196572197348        1.03735257144702
C           44.96454332676603       -6.98817676180609       -0.83265189727127
C           44.98341338723915       -5.60542773288149       -0.85423029531029
C           46.95279396202082       -2.76229680718871       -0.12247418507270
C           48.19861102084288       -3.43510055600851       -0.33929138122921
C           49.16053974000153       -2.48037817969826       -0.34562447021136
N           47.14865358645851       -1.40462349116126       -0.05383508526936
C           48.49682454300704       -1.23056252622332       -0.14719225167843
C           49.17609108650787       -0.01495257297238        0.01283198096744
C           48.51063122015904        1.21083063172589        0.15090015167837
C           49.18855150678755        2.45553920159437        0.33359519088429
C           48.24099973577324        3.42329672061769        0.28559627030500
C           46.98906835147025        2.76263564944269        0.06729778580651
N           47.16663083692656        1.40158971047968        0.03056538130861
C           45.78397104459767        3.42405040256275       -0.13479793886990
C           45.79569916606727        4.90350534377263       -0.19810476581373
C           46.51655288001827        5.55897989474279       -1.20043763768002
C           46.52559439101756        6.94034058357134       -1.26933821685494
C           45.81393656842595        7.67143094222280       -0.32273708490727
N           45.82185064603451        9.12324106120010       -0.38936788624547
O           46.45619282504601        9.63644995940710       -1.27459582274965
O           45.19328747261219        9.72228555135865        0.44448647886560
C           45.09451824796302        7.03781992800430        0.68620867968382
C           45.08565036680074        5.65585184237364        0.74197189798243
C           44.56795578206371        2.76659179470268       -0.27552266426212
C           43.32123204077273        3.42722539605691       -0.52244260141599
C           42.35901711239134        2.47428975537635       -0.47055297582957
C           43.02345060413793        1.23705806761114       -0.20650333694713
N           44.37228901336799        1.41539392153971       -0.12885722299272
H           41.27034261754565       -2.51261005040961        0.62664228001468
H           43.15466277406831       -4.43983709320510        0.66751226137222
H           47.01179315896694       -5.03358276972670        1.80785560795105
H           46.98161134305430       -7.51646701565878        1.85380887051886
H           44.39788059736063       -7.55152009334295       -1.56422584495019
H           44.43259866142768       -5.06876567688450       -1.61779795898805
H           48.31344683120668       -4.49845304954683       -0.47171134134430
H           50.22471126918426       -2.59701745874207       -0.47174867155927
H           50.25200136999301        2.56047498457868        0.47498928050420
H           48.36852843863851        4.48807560752171        0.39266039728859
H           47.05809061932928        4.97680826964372       -1.93682008782154
H           47.07473388665648        7.45825725844805       -2.04643448435926
H           44.55270459994322        7.63064218410934        1.41330943042144
H           44.53770111307885        5.14956624474489        1.52800217516486
H           43.20608223385729        4.48168622146721       -0.71288479112355
H           41.29425814532120        2.58439266995541       -0.59750103902308
