390
 energy: -688.302343313575 gnorm: 0.000567109821 xtb: 6.5.1 (b24c23e)
C           64.74253742672879        0.07823384815428       -0.03575704884811
C           65.35466048198130        1.32427019322904       -0.07625963665665
C           64.70578899372748        2.59102377950283       -0.08327437722625
C           65.66973050101460        3.55787119028015       -0.13651646640095
C           66.93874963874556        2.91222772057047       -0.17560049269840
N           66.69807744956870        1.56879118298474       -0.12629057030635
C           68.20380106405698        3.50841816034036       -0.23325400096087
C           68.24145410333516        4.98862847732990       -0.30208576758345
C           68.87812749957888        5.72626191568317        0.69908151297332
C           68.91374086603854        7.10779319839913        0.64250303896425
C           68.31393070562670        7.78120919407319       -0.42589879844607
C           68.35073410367112        9.20283719999109       -0.48911487719696
N           68.37918083108181       10.35210724283631       -0.53945532475108
C           67.67787498141887        7.04786519773005       -1.43191632594315
C           67.64128726132536        5.66653748443041       -1.36579601509974
C           69.41726183152412        2.81585332741538       -0.23165496558045
C           70.71520195142080        3.45317275476480       -0.36509807610374
C           71.63234760526421        2.46500820634223       -0.31976686335364
N           69.56722488620758        1.46677729294501       -0.12937539216038
C           70.89328863200434        1.22661704660873       -0.16712087301913
C           71.52691670852717       -0.02812449163719       -0.06078084619044
C           70.88874718499778       -1.27785943891627        0.05271089475123
C           71.53112490019727       -2.53663649189307        0.19186731079076
C           70.56276812901572       -3.50004156538225        0.25198880212351
C           69.29812764400579       -2.85804349350386        0.14116288314459
N           69.54703565924081       -1.51547089739442        0.03372904548843
C           68.03422267221137       -3.45784398820997        0.16095018229252
C           67.99887157057714       -4.93617126565187        0.25295167130255
C           67.36847209067219       -5.56393170345085        1.33018434305203
C           67.33783925516728       -6.94367428390034        1.42266213071251
C           67.93596910172484       -7.72638096165880        0.43052209044154
C           67.90526203260522       -9.14662523757743        0.52132745457869
N           67.88139407277566      -10.29481889120133        0.59433195977969
C           68.56511145450692       -7.10354313863316       -0.65153785783690
C           68.59692297431218       -5.72315250497638       -0.73447040875630
C           66.81925128139670       -2.76644495891469        0.10008770422761
C           65.51321155327182       -3.40642221792296        0.06149051914806
C           64.60298361974286       -2.41357058443181        0.00778558938093
C           65.35171198356046       -1.16892227433453        0.00229302333861
N           66.68318278002390       -1.42058230842910        0.04805768638191
H           63.65726889368043        0.09036350523464       -0.03310149769056
H           63.63729664906693        2.73076828537754       -0.04503511214468
H           65.52084649138237        4.62544213631130       -0.13970725006059
H           67.42208216621508        0.85810238182601       -0.12303537763388
H           69.33377471003938        5.20817042376640        1.53530190620102
H           69.40487877038599        7.67304097603805        1.42589341449183
H           67.21602681553729        7.56612338091705       -2.26412378520003
H           67.15976882839240        5.10158813024676       -2.15605525096319
H           70.88005952123230        4.51077367992791       -0.49230044471310
H           72.70575997678411        2.53953902038844       -0.38844020785033
H           72.59870773633656       -2.67661935914926        0.24466685829078
H           70.70871740437994       -4.56093411131713        0.37328018352717
H           68.82576518212916       -0.80574357747094       -0.04204425058178
H           66.91561175587528       -4.96059955522797        2.10876708450877
H           66.85255388448081       -7.42288463590590        2.26484976849899
H           69.02584580940054       -7.70682996067999       -1.42499690918082
H           69.07356545380654       -5.24492852366120       -1.58279914733382
H           65.34168251429881       -4.47078546171830        0.06105924888292
H           63.52745820313790       -2.48467564288174       -0.03373381101004
C          164.36080853113651       -0.12427386771300       -0.03825480208898
C          163.74464210240023       -1.32633225610914        0.28474717107769
C          164.38979653400696       -2.54979931289334        0.62038485991195
C          163.42231415936106       -3.48474010786458        0.85853168262001
C          162.15456256393867       -2.86479211102921        0.66578983068682
N          162.39980646945401       -1.56355208252508        0.33157504025307
C          160.88710797220773       -3.44173711704773        0.80640673889250
C          160.84461063988982       -4.88256158473161        1.15228712381928
C          160.23407085774051       -5.30910415147690        2.33418881725594
C          160.19202650493841       -6.65249240231026        2.66092958631654
C          160.75894829080360       -7.60043582962342        1.80377872255554
C          160.71420540145752       -8.98427872910259        2.13449857630493
N          160.67861533767839      -10.10309783288527        2.40133967752290
C          161.36977189692692       -7.17916212010067        0.61893025517344
C          161.41307237277516       -5.83342321685928        0.30141615725776
C          159.67566054740044       -2.76554739132590        0.64221421317174
C          158.37323304631772       -3.40163934034665        0.72946647922105
C          157.45988501914405       -2.43312321603696        0.51199511302734
N          159.53145007542255       -1.44218499695644        0.35725820032827
C          158.20552762901568       -1.21052444029009        0.28275431125224
C          157.57725352317411        0.02507790277425        0.02552616579061
C          158.22038277657353        1.24715623238363       -0.24774286319856
C          157.58371892378321        2.49591658435922       -0.47533918539134
C          158.55562791758456        3.42782171471383       -0.71294253238111
C          159.81671466347026        2.77271396819804       -0.64712360526053
N          159.56232344633850        1.45918095731148       -0.35388630892851
C          161.08263865042818        3.34359643412431       -0.81772489798011
C          161.12424276339303        4.78488070713064       -1.15880518056677
C          161.77024147761696        5.69348619838238       -0.31675527676629
C          161.80784390906607        7.04040591969641       -0.62911812248372
C          161.20104716193842        7.50597051850091       -1.79949607321241
C          161.23925947836190        8.89114855581277       -2.12525785664277
N          161.26936066712065       10.01095301570607       -2.38865225268167
C          160.55600142021655        6.60070848496105       -2.64742934482391
C          160.51737325173428        5.25592106952266       -2.32575051086811
C          162.29462587925383        2.65586222332285       -0.69084788477876
C          163.60188524022462        3.24877494649837       -0.92831026770104
C          164.50829902418729        2.27584648924504       -0.70708174533939
C          163.75589630575465        1.08699065813837       -0.34618950687350
N          162.42600007026422        1.35080323644362       -0.35598305114482
H          165.44590983845762       -0.14359523229377       -0.05030964578481
H          165.45847834191468       -2.68237728739063        0.67520839942548
H          163.56797192738236       -4.51190598347591        1.15113185508455
H          161.67797021590886       -0.87437858356209        0.14916050259439
H          159.80381239617091       -4.57602509898800        3.00706003349771
H          159.72093635382328       -6.97503343881079        3.58204790899128
H          161.80642764907302       -7.91138163183453       -0.05013746625527
H          161.87459932270829       -5.51281667058523       -0.62581309131950
H          158.20242298144669       -4.44947883537505        0.91573606925533
H          156.38490908500538       -2.51404436734985        0.49424009128145
H          156.51741279977011        2.65264261968277       -0.45149438028714
H          158.41456911953023        4.47871171711775       -0.90594743663324
H          160.28035646661291        0.75324531895348       -0.22828707809503
H          162.23010857422619        5.33866495482820        0.59861983703655
H          162.30547618917669        7.73971051182290        0.03252087501699
H          160.08842708501680        6.95701922368724       -3.55785833977129
H          160.02843244741285        4.55570111335255       -2.99370731118500
H          163.77663425829036        4.26712563955635       -1.23605174749394
H          165.58330398716672        2.32450512022275       -0.78145952503194
C           72.93204158865666       -0.04801874809533       -0.06508547071124
C           74.15649052370330       -0.06822330647658       -0.06814161944331
C           75.49852595598985       -0.08502937614148       -0.07069153599766
C           76.72924836738838       -0.09910159719154       -0.07133557727526
C           78.06650549126120       -0.10946930647650       -0.07227618989846
C           79.29730783842902       -0.11586331467896       -0.07246501739503
C           80.63916709283686       -0.11685488311752       -0.07050878227108
C           81.86400551092946       -0.11678021532421       -0.06604382016890
C           91.51783371722000        0.02513141149867        0.03461764761859
C           92.74259799331804        0.04634235078064        0.05078130137771
C           94.08349223861397        0.06678313728000        0.06225318779607
C           95.31450242325143        0.08194705325717        0.06851682424413
C           96.65088224866898        0.09021001924272        0.07168239766255
C           97.88198164743149        0.09268605151099        0.06933774368519
C           99.22300461406651        0.08558312953842        0.06097518470453
C          100.44791899339360        0.06994625905331        0.05002493104786
C          110.08743835420722       -0.26206770919980       -0.22701714291376
C          111.31164946126779       -0.29492917433109       -0.25769080863337
C          112.65218197803711       -0.31672177093228       -0.28377362862635
C          113.88315061137511       -0.32404575306071       -0.29851767909625
C          115.21940992830135       -0.31925963754672       -0.30268613872692
C          116.45036653911656       -0.30354294517528       -0.29544183253518
C          117.79087241631500       -0.27492684995657       -0.27537006317051
C          119.01506953412327       -0.24177930296819       -0.24447515215712
C          128.65504716028249        0.04861212627570        0.05411632513678
C          129.88004078070006        0.05750822770181        0.06432003914880
C          131.22109891464822        0.06177146875453        0.06749182302690
C          132.45219773238230        0.06044421096379        0.06299682643461
C          133.78855136196773        0.05542981026937        0.05343343386546
C          135.01954163928974        0.04736285678455        0.03833169313770
C          136.36046607112098        0.03479133297099        0.02176452637826
C          137.58532429594794        0.01858848145682        0.00699646725126
C          147.24051834761764        0.02683573456161        0.02366006859338
C          148.46522174323437        0.04178238220561        0.03714674192003
C          149.80693654009514        0.05574580776732        0.04666415189460
C          151.03771534173478        0.06762047137077        0.05114046909713
C          152.37494879105253        0.07397091782517        0.05245741940319
C          153.60572087457265        0.07550004894700        0.04932340709731
C          154.94778151249287        0.06758818858670        0.04411623394708
C          156.17230747563755        0.05115612052849        0.03774254157414
C           83.26816577750189       -0.10574484400500       -0.06147495771794
C           83.88804216012741        0.80733996996923       -0.93658685733843
C           83.23085564297985        1.72371401568271       -1.79766747949896
C           84.18920027741972        2.40760534202893       -2.49460909353680
C           85.45999916382877        1.92089437219235       -2.08415355687721
N           85.22741410209397        0.96344858610855       -1.13371901073414
C           86.71708178961967        2.33928205258324       -2.53824365078909
C           86.72553461860844        3.36614833811467       -3.60789917268273
C           86.13408141376117        3.10569632717982       -4.84625837983906
C           86.14445522290106        4.06068752462423       -5.84703348476913
C           86.74434511212296        5.30351477843292       -5.62366878336448
C           86.75478961681169        6.28918882724720       -6.65076104224239
N           86.76213130444773        7.08828456290787       -7.47874354499247
C           87.33458873342178        5.57054359570246       -4.38474100592375
C           87.32583690904569        4.60868699687288       -3.39072623628905
C           87.94470178926359        1.87101288540444       -2.06734117410174
C           89.22948948192031        2.28150896333474       -2.60528252068275
C           90.16892677500636        1.62866050677831       -1.89051172371767
N           88.12439613142895        0.96911248829345       -1.06315858481113
C           89.45621795260105        0.81409359548090       -0.92602564690985
C           90.11482494251698       -0.00201173226782        0.01605292819683
C           89.49352571975544       -0.85377572739076        0.95004711995910
C           90.14797085734251       -1.65491643574624        1.92109692185623
C           89.18984762793296       -2.34540065489149        2.61171706499147
C           87.92229695070407       -1.99181851777614        2.07418440068646
N           88.15616838621193       -1.07933610492939        1.08055304527486
C           86.66662701184464       -2.46067980481612        2.47942134075491
C           86.65865610078195       -3.47959334677103        3.55664124066035
C           87.29245098449807       -4.71095707655055        3.37414877934558
C           87.28671161121564       -5.66229098503175        4.37845774388458
C           86.64865386949164       -5.39508190068330        5.59332002998491
C           86.64489135223029       -6.36982398401691        6.63084253876295
N           86.64122790685974       -7.15764896126530        7.46957531060387
C           86.01475772285676       -4.16332422161961        5.78186765042054
C           86.01928467791244       -3.21913711243740        4.77104674406334
C           85.44028952398119       -2.04636958196453        1.95635939649480
C           84.15950119557760       -2.60134870207883        2.35635930834389
C           83.21972367784844       -1.94294133454447        1.64703636522632
C           83.92850115185864       -0.99577767235162        0.80921064371804
N           85.25920350085393       -1.08925916871018        1.00539417659868
H           82.16154087078935        1.84179859955829       -1.86560851221198
H           84.03129260338626        3.18744006925353       -3.22149779187988
H           85.95404732004147        0.45123628935530       -0.64490892085798
H           85.67986546628224        2.13825695708692       -5.02863109120585
H           85.68983813782106        3.84847255094257       -6.80761440067371
H           87.79750092350321        6.53409609987185       -4.20678989854476
H           87.77414159134973        4.82346737463117       -2.42731806198542
H           89.37156845542775        2.96403362094783       -3.42733572646300
H           91.24154333937885        1.66998155812741       -1.99165650095369
H           91.21514834626018       -1.68849004562259        2.06950833337602
H           89.34564655540842       -3.03150385316953        3.42806192971855
H           87.43128633902654       -0.63369498776556        0.52808439725057
H           87.77715696605826       -4.92761719506741        2.42882791639152
H           87.77520476777265       -6.61771896232755        4.22692551605633
H           85.52197734326749       -3.95140805968656        6.72348555719791
H           85.53745748232899       -2.26034375232795        4.92537083338346
H           84.02080181913900       -3.39587572948066        3.07142191360797
H           82.14945531404581       -2.07209914687530        1.66421878948469
C          101.85080789678528        0.04071679742793        0.02622308744914
C          102.47912631247846        0.92643226044885       -0.87107923438305
C          101.83292432726432        1.87576012558473       -1.70417638530537
C          102.79588177600550        2.52611809405682       -2.42656047449012
C          104.05759725756256        1.98163844140654       -2.06368517361522
N          103.81634118746888        1.02755734960870       -1.11178273739173
C          105.31557916983340        2.34257542132371       -2.56206533716657
C          105.33727742375659        3.38588655100108       -3.61535718306965
C          104.68309442824069        3.18277877124447       -4.83265990423647
C          104.70593196217416        4.15578155243397       -5.81582444647373
C          105.38226195978781        5.35927570822414       -5.59550617818232
C          105.40495638123699        6.36425755247786       -6.60352766093110
N          105.42232292741541        7.17720824121499       -7.41774676768327
C          106.03658043527102        5.56853307705771       -4.37784148936158
C          106.01455714382871        4.58891915078872       -3.40163926119751
C          106.53422970443616        1.80087892496141       -2.14992914668190
C          107.81443996057095        2.14125648143615       -2.74447747380828
C          108.74558502650800        1.42394653250984       -2.08258146953248
N          106.70670690620463        0.87845207535680       -1.16331520767222
C          108.03193763239020        0.64337237203112       -1.09107205551675
C          108.68571314489770       -0.21332470131070       -0.18224544365576
C          108.06274544948478       -1.02319384674437        0.78727775644755
C          108.71709234433300       -1.85235267162008        1.73456069824132
C          107.75618735084750       -2.47330182153804        2.48489022278404
C          106.48632076794554       -2.04868838334375        2.00805152798007
N          106.72285757428465       -1.16534831726157        0.98906751524176
C          105.22667545638531       -2.43391318125134        2.48318707922650
C          105.20957609196003       -3.42876731711572        3.58256110702502
C          105.75798033322562       -4.70040889503101        3.40032253906175
C          105.74178318521678       -5.62838120635468        4.42621397827957
C          105.17929437599457       -5.29694566807324        5.66239055884512
C          105.16519510407672       -6.24761009203205        6.72195191245795
N          105.15389011522905       -7.01622195585190        7.57825167105909
C          104.63088910916912       -4.02476030367220        5.85054245101084
C          104.64494332519290       -3.10408995547400        4.81838801946635
C          104.00310320043683       -1.96059149854586        2.00640790579026
C          102.71332145801473       -2.44211588639424        2.46768404177090
C          101.78008666692246       -1.75601277994078        1.77629196886919
C          102.50130964890050       -0.86129669656185        0.89249314380062
N          103.83215978398599       -1.01401895665474        1.04274471093593
H          100.76792109604456        2.03956551029041       -1.73495816995362
H          102.64689048206962        3.31892434182359       -3.14117693709334
H          104.53678898275710        0.48078902902530       -0.65205442028046
H          104.16950002433974        2.24525901248817       -5.01366845840764
H          104.20167356860043        3.98806426802065       -6.76029094200639
H          106.55940495183680        6.50139223128143       -4.20229429928965
H          106.51321492778091        4.75916876824878       -2.45420167118917
H          107.95796062881503        2.82396129736433       -3.56613303814549
H          109.81264887832492        1.40198039218306       -2.23525450154374
H          109.78653745392869       -1.95021527065907        1.82796972745857
H          107.91247128190948       -3.15763834161422        3.30261901170742
H          105.99811738085809       -0.68203812973279        0.46896979123616
H          106.18293277036059       -4.96655179813537        2.43903498052482
H          106.16334054183882       -6.61523198774963        4.27508884490476
H          104.19670937931409       -3.76325709395041        6.80839872318108
H          104.22939530790254       -2.11455892491628        4.97143484126612
H          102.56403560897270       -3.21257813032226        3.20654871482164
H          100.70632027082696       -1.83261570547133        1.83598977912300
C          120.41681259964878       -0.19375059340976       -0.19944954012815
C          121.03873294493054        0.72709135618778       -1.06503965298341
C          120.38329538875361        1.62434584249060       -1.94728802640237
C          121.34336810201198        2.33734728893660       -2.61196857494307
C          122.61378826456730        1.88621885498691       -2.16170306400575
N          122.37842432459061        0.92045833235367       -1.22017488121376
C          123.87288564857981        2.33820290076941       -2.57548685599711
C          123.88870550900502        3.37727277986596       -3.63318823060145
C          123.33925100735907        3.12026803469297       -4.89139461711619
C          123.35477171709424        4.08949953625676       -5.87839439571691
C          123.91758672100447        5.34304478006609       -5.62104207591986
C          123.93118271763889        6.34426874678787       -6.63296970564508
N          123.94045252913995        7.15375867100527       -7.45076372409003
C          124.46684665341624        5.60606695791436       -4.36257215811614
C          124.45347678528987        4.63013246384832       -3.38248289834088
C          125.09709860992513        1.88960058743775       -2.07695640165132
C          126.38623543882758        2.32186321939985       -2.58631961132586
C          127.32036533823377        1.67040249214549       -1.86335725429619
N          125.26927322919936        0.98189270069422       -1.07681065840550
C          126.60031566260456        0.83973209374528       -0.91821141929549
C          127.25204451638108        0.02584504324960        0.03046724789544
C          126.62491213012284       -0.81782230803687        0.96821614016838
C          127.27251887763265       -1.59494724567808        1.96296372575368
C          126.31040528370465       -2.27744639714658        2.65623826468511
C          125.04780728028746       -1.94575536871541        2.09419599525918
N          125.28772180041013       -1.05090932579785        1.08608727075530
C          123.79028457098104       -2.42178519405077        2.48563370193759
C          123.77014489336761       -3.41349145555268        3.58767335928607
C          124.42375828655399       -4.64061485834757        3.45342276422394
C          124.40234350579865       -5.56655446608446        4.48106236008266
C          123.72799168848951       -5.27761641969579        5.67108051029209
C          123.70685383454330       -6.22634096678948        6.73225310319229
N          123.68962586920669       -6.99411328236122        7.58920644334095
C          123.07428062125892       -4.04978580544636        5.81145287302391
C          123.09489283597651       -3.13116305934114        4.77762199553706
C          122.57083544159268       -2.04115063515430        1.92307589041077
C          121.29101542699689       -2.61456957071255        2.29928469747400
C          120.35895177515128       -1.99530971557976        1.54599455593222
C          121.07163068612974       -1.05103209537244        0.70807349689365
N          122.39717254287035       -1.10970476587853        0.94517740913279
H          119.31372616956251        1.71175966983947       -2.04923624919299
H          121.18620322376331        3.11372463711908       -3.34269220695373
H          123.10380405939026        0.42936459588213       -0.70832460205799
H          122.91407974434446        2.14495666485200       -5.09993158123102
H          122.93250686047311        3.88032271792923       -6.85428441708807
H          124.90124457200595        6.57767642336972       -4.15846944620971
H          124.86980990473668        4.84135119810799       -2.40405110064939
H          126.53452088300830        3.01538801250264       -3.39801704044815
H          128.39402242401343        1.72507641535923       -1.94507653570900
H          128.33784454121695       -1.61707526915451        2.12606769045972
H          126.46055476080350       -2.94489184878906        3.48893717935975
H          124.56645305265798       -0.62321086332109        0.51495297364557
H          124.93577698658312       -4.87505048431637        2.52694199883020
H          124.90619946663655       -6.51917918115258        4.36679107628615
H          122.55304997756762       -3.82105475785880        6.73361857184264
H          122.59672064813223       -2.17539487785865        4.89428790577880
H          121.14832850213108       -3.39509705178637        3.02881798767435
H          119.29183367246881       -2.14875134559465        1.53445606423373
C          138.98857646560745        0.00543015628267       -0.00705982033765
C          139.61355280241020        0.89568516833980       -0.90181760623648
C          138.96176652901795        1.80917952889176       -1.77004760033193
C          139.92352269281528        2.46864042789812       -2.48549416863920
C          141.19096588148480        1.97018582245138       -2.07843374364155
N          140.95298961853075        1.02905998955447       -1.11296474559308
C          142.44973933557276        2.36896843335174       -2.54446546622615
C          142.46140028443696        3.38104343012334       -3.62821856310165
C          141.86272612274297        3.10632458394706       -4.86004808743133
C          141.87372086930958        4.04681873769483       -5.87442347118972
C          142.48145724304004        5.28933885379977       -5.67143483395264
C          142.49180540515604        6.26062910156327       -6.71215473362230
N          142.49855938533764        7.04658459578229       -7.55265734757311
C          143.07886952221091        5.57061534207338       -4.43913750145922
C          143.06945950907067        4.62309854922333       -3.43139216075255
C          143.67523416180057        1.89530857011965       -2.07266287768706
C          144.96169939838208        2.29343448507527       -2.61566396470332
C          145.89805505433992        1.63918584536157       -1.89810563998090
N          143.85048540002526        0.99876436722623       -1.06319398857510
C          145.18180791975274        0.83403664477990       -0.92841749320902
C          145.83650224767658        0.01072908932032        0.00977518433512
C          145.21132160160946       -0.84025768598841        0.94176709674864
C          145.86261490395560       -1.65766494426605        1.90132895307819
C          144.90082702868426       -2.34021851780379        2.59484788287506
C          143.63385581414684       -1.96385563020506        2.07191125925728
N          143.87187193868846       -1.04837547762976        1.08226395174815
C          142.37496595957637       -2.41319043581531        2.49003597561754
C          142.36131942018883       -3.44033431395026        3.55945852946886
C          142.96568662042418       -4.68326669946071        3.35696170968828
C          142.94969672027932       -5.64506361391168        4.35114263215799
C          142.33104581851978       -5.37696673674719        5.57579049091129
C          142.31490779220104       -6.36370069286344        6.60179854889121
N          142.30347853961050       -7.15992316025646        7.43249554584856
C          141.72822422728663       -4.13299978133292        5.78502018154962
C          141.74283602699506       -3.17821337617751        4.78427756663643
C          141.14995850637578       -1.97276930812484        1.98659931953139
C          139.86389125747800       -2.50105881445489        2.40556940040797
C          138.92760272487945       -1.82164132225340        1.71175501261269
C          139.64369025699907       -0.89022425267877        0.86244255902671
N          140.97441818728913       -1.01082578105864        1.03893051612359
H          137.89366247788726        1.94167684232176       -1.83018214749474
H          139.77035280710521        3.23995156086382       -3.22242750366502
H          141.67640646579076        0.51303404786756       -0.62341112729806
H          141.40180697209925        2.13912591919214       -5.02619949215284
H          141.41321212434349        3.82358411220979       -6.82968768824179
H          143.54759595279342        6.53413783374918       -4.27696379288722
H          143.52297463695109        4.84931873272837       -2.47306623600205
H          145.10691462019847        2.97009972221340       -3.44199700254419
H          146.97072031510760        1.67274799477709       -2.00145935350237
H          146.93045047590221       -1.70743624735278        2.04010544673142
H          145.05365755158044       -3.03504637614265        3.40436133368151
H          143.14855163088450       -0.58861464653751        0.53938111560295
H          143.43456743504319       -4.90052644805326        2.40383254096877
H          143.41441156299197       -6.60966742624515        4.18380251073421
H          141.25091543322790       -3.92027835440521        6.73439794844793
H          141.28467917214005       -2.21051493422200        4.95431928247376
H          139.71888560365957       -3.29324684363488        3.12194345240043
H          137.85523938767514       -1.92818705273116        1.74535370814486
