258
 energy: -513.589822002545 gnorm: 0.000872957294 xtb: 6.5.1 (b24c23e)
Co          50.02497644922262       -0.00261048023486       -0.03379737765249
C           46.65461896121116        0.03694010420360       -0.06996655561350
C           47.32566614071720        1.21586065032934       -0.31547341000463
C           46.67536291163295        2.46187283580728       -0.58601168098162
C           47.63751736967675        3.41366776926024       -0.56776506734492
C           48.87637607810380        2.74747513153435       -0.28801936220468
N           48.68019891810231        1.39368416048680       -0.18587541948542
C           50.05852804673732        3.40390859660026        0.02998035600147
C           50.06888074634117        4.88746245589642        0.06451001424952
C           49.87171714577165        5.61630210630221       -1.10765256614258
C           49.88172657763950        7.00610871341338       -1.07269668745199
O           49.69742591711390        7.72573093338013       -2.20621594359564
C           50.08262603442648        7.66984143993460        0.13860571921275
O           50.08370023941491        9.04017152866514        0.14287150121273
C           50.27617958990488        6.94045002887245        1.30887190714580
O           50.46308175628440        7.66128388814346        2.45890747120446
C           50.27336593248470        5.55130048061602        1.27646874274330
C           51.22351895194318        2.71471651983622        0.33054116521083
C           52.46752931863260        3.34374197781139        0.66000147916510
C           53.40859039185290        2.36943763074912        0.67272435174779
N           51.39921088903111        1.35679219051830        0.18354481305519
C           52.74026750872075        1.15081291024906        0.34170894934144
C           53.41321360991034       -0.04007856008445        0.05329037897032
C           52.72916559434483       -1.21382929783745       -0.27556504200801
C           53.38015632053822       -2.43375625242936       -0.63489469133786
C           52.41570409100378       -3.38301861347027       -0.70182422146805
C           51.17983751717775       -2.74089319163642       -0.36723104746438
N           51.37894861481176       -1.39205196081123       -0.17426161898900
C           49.98506004537744       -3.41005026842246       -0.14965025681354
C           49.96108062935050       -4.88962976682896       -0.21578104452486
C           50.77547817088824       -5.64468255895158        0.62888674236898
C           50.74492882661024       -7.03293853653920        0.56909859009665
O           51.52423818203998       -7.77606204575403        1.39241148072126
C           49.90504962091432       -7.67143008691348       -0.34502079528451
O           49.89912912404501       -9.04091489411618       -0.38491476331179
C           49.09593902485400       -6.91750989559367       -1.19162946531234
O           48.30232759757295       -7.61432071997712       -2.06474336719640
C           49.11647416615727       -5.53021023119018       -1.12721002404257
C           48.80600360843589       -2.72839769485556        0.12858934532754
C           47.55623456305711       -3.36383694753413        0.42820076363629
C           46.61610712330592       -2.38919961291514        0.44912111881965
C           47.29428774697861       -1.15978147598852        0.17282171367148
N           48.64435280748483       -1.36994805861967        0.04193435313777
H           45.57102910833296        0.05134952802683       -0.06993403797617
H           45.61514372207121        2.57521393735960       -0.74758193109812
H           47.52812653369075        4.47696837970101       -0.70633462598925
H           49.72829030732318        5.11132132186302       -2.05408989726671
H           49.73768016261499        8.66932514276298       -1.97862771292916
H           50.23440091118514        9.33596667212727        1.05476910903117
H           50.58783540710553        7.07427253639296        3.21609648213168
H           50.41010404977883        4.98949631412197        2.19294418726977
H           52.59838921710204        4.39937854748278        0.83390846437526
H           54.46614042621902        2.45550649226331        0.86416368921917
H           54.44000461766563       -2.53509972660664       -0.80467742499477
H           52.52101221662826       -4.42654136031276       -0.95009236582678
H           51.41959105165114       -5.16060116586679        1.35150623616698
H           51.36089741093534       -8.71459199930078        1.20215000826414
H           49.26550410464650       -9.31700517809756       -1.06622039206014
H           47.78062378375444       -7.01160439721075       -2.61065754142408
H           48.49383890629092       -4.94987863487148       -1.79791310726414
H           47.42793687244409       -4.42056694227157        0.59871420408724
H           45.55578254784884       -2.47626975137487        0.62598420242628
Co          90.15555825851985       -0.06450040229196        0.04090411040058
C           93.52712522875005       -0.10478014623772        0.08057557184632
C           92.86463604630637       -1.24866760660500       -0.31051027853934
C           93.52421460395838       -2.45503573459124       -0.70764847093859
C           92.56143450981008       -3.39634604576555       -0.84518778277341
C           91.31380158601040       -2.76437092406811       -0.52768047432502
N           91.50654022477919       -1.43504224917031       -0.24947926598750
C           90.12342973780092       -3.45300254590790       -0.33273746685947
C           90.11326143417485       -4.92757349492368       -0.49995039749056
C           90.33698969882231       -5.48978276737946       -1.75611853450485
C           90.32656390931686       -6.87123945213234       -1.91197315247651
O           90.53633035822330       -7.42940883817259       -3.12886000664622
C           90.09925815918943       -7.69388045759969       -0.80747602850177
O           90.09861370819834       -9.05193968090629       -0.99052055824304
C           89.88047711607925       -7.13089924586399        0.44715919962419
O           89.66960916892151       -8.00177919717481        1.48377478152429
C           89.88337334499705       -5.75039201753642        0.60526378174111
C           88.95309656147286       -2.80783687489625        0.03644654686514
C           87.70680616644509       -3.47426519283703        0.26908283274736
C           86.76794101899712       -2.50947410129453        0.41870646216688
N           88.77991133514136       -1.44225707105080        0.07686517754998
C           87.43904306109877       -1.25797054428281        0.26136155329921
C           86.76581346234089       -0.03938997732834        0.13606530202412
C           87.44780928770716        1.16583450242954       -0.05550205126237
C           86.79329286559690        2.41666933960175       -0.27454186152966
C           87.75798155757394        3.36765623770647       -0.25620981276818
C           88.99702703129240        2.69435253204806       -0.00494628683474
N           88.79894980607850        1.33227902724426        0.04903223701493
C           90.19277537111006        3.33891013511245        0.27105170872883
C           90.21801579659986        4.81794309191533        0.35056139879230
C           89.41281349284917        5.48660063943998        1.27312731074368
C           89.44551930583744        6.87396511195589        1.35051797428359
O           88.67494536928795        7.53232571577402        2.25016632381530
C           90.27841196096057        7.59876675988800        0.49625468757860
O           90.28672350533739        8.96507700692760        0.59224489864754
C           91.07864305680472        6.93115903013555       -0.42773726328208
O           91.86625061500298        7.70986148569077       -1.23440971727806
C           91.05627192112206        5.54422551515333       -0.50029383253525
C           91.37108858208714        2.63352157391056        0.48690472025189
C           92.61537887131540        3.23779416561993        0.86301102325686
C           93.55396145242565        2.26254858149137        0.81837671019348
C           92.88085148013546        1.06444181496032        0.41956109990654
N           91.53382581675477        1.28875581239278        0.27905582400102
H           94.61027245231523       -0.12195916416438        0.11067503134776
H           94.58960111904250       -2.55250154196781       -0.84356448267173
H           92.67482835083676       -4.43445762393539       -1.11204542822158
H           90.50170785275050       -4.86024927183053       -2.62092120013073
H           90.48869148308002       -8.39507910691502       -3.03432648288112
H           89.92647917079920       -9.46895473749954       -0.13132394144911
H           89.52719418429389       -7.52317997618760        2.31087975951294
H           89.72720735416436       -5.31904524363752        1.58700477240105
H           87.57336424232999       -4.54353402219965        0.29199755091888
H           85.70985483593347       -2.61922532880483        0.59406894876856
H           85.73148260892808        2.53480548292562       -0.41939651243936
H           87.65080019664838        4.43123720979091       -0.39348669754787
H           88.77464695896350        4.93421288400382        1.95072415559872
H           88.83545013519613        8.48531578268233        2.15089252414653
H           90.91299346682932        9.30759113481427       -0.06498330042415
H           92.37942340950782        7.16386154650040       -1.84438635123661
H           91.67260883836414        5.03197291782436       -1.22978918455365
H           92.74078225647654        4.27545264916717        1.12703962128951
H           94.61061981495592        2.33092575783668        1.02300260439926
C           56.03793473359206       -0.05521856071735        0.09296203396249
C           54.81501699245293       -0.05186987882568        0.07705351008489
C           57.38560908272373       -0.05668815145503        0.09726898233823
C           58.60880553782468       -0.05321628388218        0.09264213249536
C           69.41845223423478       -0.02206956491273        0.11244634142798
C           68.19493451888526       -0.02428736781082        0.10547443325270
C           70.76568003336457       -0.01495151550982        0.10934727389749
C           71.98917779536913       -0.01239463107082        0.09626265947123
C           82.79419424345254       -0.01648374817490        0.19871936839016
C           81.57091169567418       -0.01332824452141        0.18833112168739
C           84.14156587688207       -0.02007126300409        0.19395574981074
C           85.36446060786484       -0.02876755339509        0.17191071685265
Co          63.40197554933107       -0.03321755734871        0.04323801931008
C           60.00961629795503       -0.04692736873805        0.07283548447100
C           60.69225136274237        1.11149902588717        0.45859911557173
C           60.04421944621467        2.29986102953648        0.91220626739771
C           60.99357203042657        3.26786431905587        0.95150016083736
C           62.21602897430862        2.66428477271595        0.51701497533465
N           62.03033969625042        1.32314767048364        0.28102099419210
C           63.38811389594110        3.36362445625074        0.25370691142965
C           63.36880786065357        4.84126167817314        0.32371998973987
C           64.23449063404686        5.52335827996906        1.18023440772950
C           64.22103856667114        6.91324952812041        1.25408757604232
O           65.04989728495961        7.58784692136337        2.09242031073549
C           63.33821760903817        7.64270193293629        0.45046628597869
O           63.30763003259840        8.99902019340314        0.49317196776964
C           62.47660985205253        6.95258593441507       -0.40715868225044
O           61.64071191865192        7.72674402488124       -1.16920282892681
C           62.47881650093471        5.56681079109260       -0.47170955976774
C           64.57261312153028        2.71392769297981       -0.06542360135697
C           65.80568557940542        3.37723956936737       -0.36404932265383
C           66.76768049961723        2.42195049157519       -0.38509160719955
N           64.76747991115727        1.35321358314499        0.00698292453426
C           66.11498665947636        1.17923316537210       -0.12333173772006
C           66.79428238322137       -0.02673832865243        0.08281885329994
C           66.11155010739407       -1.23697439002327        0.24165401646892
C           66.76013147572941       -2.48789649705322        0.47507205855099
C           65.80879179834031       -3.44604693544651        0.35379613256297
C           64.58453859622213       -2.77406011601743        0.03897392015106
N           64.77252576650960       -1.41174839529605        0.03817924415418
C           63.41139145657023       -3.41389150867136       -0.33770968658810
C           63.41692163485720       -4.88603602372066       -0.50045856792539
C           64.29395651754682       -5.48406995267637       -1.40659528509448
C           64.28894876742014       -6.86438470103227       -1.56830270615360
O           65.12146381382725       -7.45615608615592       -2.45680020246783
C           63.41256681794948       -7.64904413683038       -0.81558514838840
O           63.44345594717037       -9.02241940503868       -1.00512856669924
C           62.56478463112465       -7.05629504908369        0.11844559517158
O           61.73267829610492       -7.82086385656704        0.88224876764504
C           62.55295361422716       -5.67358800168544        0.26169242739330
C           62.23051367134646       -2.71543096428511       -0.55209852665444
C           60.99959177387044       -3.31548576724762       -0.96928565617533
C           60.03890868629320       -2.36816112072501       -0.83598303106906
C           60.69002337709467       -1.19093235901316       -0.35726028971453
N           62.03718912950317       -1.38749860165844       -0.24970552348608
H           58.99598393680124        2.37231429852042        1.15375387786694
H           60.88534285318590        4.29818582414644        1.24912439177851
H           64.91224513016191        4.96811761674175        1.81877372549505
H           65.60633062386417        6.98035149126890        2.59724224952882
H           62.63347130486141        9.30787739193643       -0.13360917692580
H           61.08229619616984        7.17783560563113       -1.73502408646151
H           61.81058734003913        5.05570654988751       -1.15470120673871
H           65.91340625242189        4.43671718307673       -0.52999383093095
H           67.82579463712541        2.53383992939731       -0.55912592091445
H           67.80987400627957       -2.60270326492902        0.69219563705631
H           65.91657372391539       -4.51264806648971        0.46465665493556
H           64.96158785829255       -4.88253203522846       -2.00973163794993
H           64.97104905818352       -8.41580795024355       -2.42418266000661
H           62.54921202783166       -9.38828156757885       -1.00612078424591
H           62.02861735846358       -8.74199160988045        0.88486829129767
H           61.89151190825253       -5.22409953655440        0.99090395242679
H           60.89286474251586       -4.33200681735146       -1.31114269214059
H           58.98195798667244       -2.44612292324657       -1.03365662810780
Co          76.78066288707960       -0.00442152044228        0.06952217349208
C           73.38968920397156       -0.00686553341454        0.07260111066062
C           74.07321211338534        1.17113738929982        0.39261066807413
C           73.42575482117287        2.38235455019331        0.78273290613423
C           74.37941618296198        3.34674275727011        0.78916182600305
C           75.60398813207070        2.71853503628463        0.39700640708319
N           75.41323930218613        1.36885384461452        0.21790629443100
C           76.78379838074609        3.39838248466233        0.12049183983713
C           76.78143674932291        4.87738115665445        0.14569912928574
C           77.64879011611372        5.57026585599891        0.99223222997501
C           77.65183202950125        6.96145239415644        1.03211561487510
O           78.48102295380839        7.64669278647388        1.86090351361722
C           76.78421122357567        7.68120492607286        0.20326321695981
O           76.76916587638256        9.03814691104185        0.21330370087398
C           75.92229771836681        6.98033515450164       -0.64532108061286
O           75.10291430870160        7.74551854484665       -1.43390656341954
C           75.90770898858202        5.59333394850597       -0.67581750299379
C           77.96662973411509        2.72756055848237       -0.16249288212277
C           79.20522546076511        3.36943397537744       -0.48303391520978
C           80.16168171185939        2.40855880910516       -0.45442413427539
N           78.15240095321360        1.37096379097383       -0.02735019030127
C           79.50035926932242        1.18360176980217       -0.13785713817645
C           80.17073732011163       -0.01020021343400        0.15183431881055
C           79.47856150750182       -1.20541022290175        0.37233263155128
C           80.11535489299298       -2.44713406207484        0.67502687573475
C           79.16469136387718       -3.40759440027704        0.56230017922701
C           77.95221671692502       -2.74554017564514        0.18827802241237
N           78.14411906012626       -1.38560044816929        0.14109850035073
C           76.78578838171899       -3.39626035042884       -0.19530079239607
C           76.80121111369405       -4.87103166611771       -0.32902384065996
C           77.70534253291892       -5.47738609085497       -1.20271863931019
C           77.71240372596776       -6.85973521317244       -1.34511209400967
O           78.57117255148721       -7.45852934480538       -2.20282464190889
C           76.82008505591912       -7.63843934704306       -0.60484820808632
O           76.86291329780447       -9.01354876481385       -0.77558355827499
C           75.94586492708802       -7.03733702009336        0.29895823561294
O           75.09814156372393       -7.79578109821393        1.05238916251863
C           75.92288367144577       -5.65278206668652        0.42259700410222
C           75.60864310881337       -2.70419448641211       -0.44315252497241
C           74.37745082044846       -3.31591119755548       -0.84342441136625
C           73.41656580581407       -2.36579249093302       -0.73547879343223
C           74.06853034299202       -1.17347493920931       -0.29626991750630
N           75.41501253088671       -1.36626397643969       -0.18341570756690
H           72.37539767637196        2.47057016285187        1.00941465279669
H           74.27261513154552        4.38991531721538        1.03848889203255
H           78.31426549066400        5.02257821499506        1.64987409670150
H           79.03025752523978        7.04612917976693        2.38174007898154
H           76.10398927686235        9.34021060613401       -0.42630340970613
H           74.54307036074583        7.18978862267577       -1.99157953967815
H           75.23980573397537        5.07364325723667       -1.35259665198371
H           79.32012583857619        4.41961236268251       -0.69637899425188
H           81.22162743344394        2.50627056703028       -0.62551218150361
H           81.15830914707367       -2.55577912685958        0.92553474813199
H           79.26546493721911       -4.46945353890615        0.71699840188434
H           78.38564987906007       -4.88070097657650       -1.79643914994439
H           78.42533522540064       -8.41859824446798       -2.16258717250071
H           75.97150890889210       -9.38671668391642       -0.77730517010062
H           75.40209758331734       -8.71377121278183        1.08270607016373
H           75.24143704104323       -5.19758261839791        1.12952016374205
H           74.27017049565310       -4.34166190392931       -1.15616801459735
H           72.35963426800126       -2.44992777120268       -0.93061167702426
