432
 energy: -711.713371427250 gnorm: 0.000871528322 xtb: 6.5.1 (b24c23e)
C           83.03856233693908        0.04884373309057        0.10034722474878
C           83.65287085303912        1.22656957560748        0.50534342347467
C           83.00638746256412        2.41670762989204        0.94289491854545
C           83.97224476240582        3.33907345168442        1.23214315896343
C           85.24082538722973        2.74514194917136        0.97416817776317
N           84.99674663568022        1.46965641229949        0.54820818814165
C           86.50540021935075        3.31955836627971        1.13999127379960
C           86.54615958797828        4.73721714435054        1.57524538675267
C           86.00534640138333        5.71497260351175        0.83268310440248
C           86.02343428706354        7.15991497406158        1.25903598459280
N           87.00148999455450        7.38487543099794        2.32660028352967
C           87.37263349935829        6.36095640502251        3.15911092578994
C           87.20664221389626        5.06777612493952        2.82983253361716
C           87.71723502481638        2.65747746332353        0.92379472164491
C           89.01886643222400        3.28367810338139        1.07145948151539
C           89.93449022209907        2.33758143447602        0.77816984403796
N           87.86364638873151        1.36319683359373        0.53075813771205
C           89.19151173173829        1.13884522156130        0.43940737446047
C           89.81989259831661       -0.06411796503233        0.06610043605956
C           89.18060319830114       -1.25162660841904       -0.33241752546559
C           89.82025930042836       -2.46311827115877       -0.70769448798394
C           88.84984493792113       -3.36784755611456       -1.03804770033730
C           87.58608304497413       -2.73469523288217       -0.87895578748111
N           87.83792659333949       -1.45947895103459       -0.44636375377964
C           86.32241256732387       -3.29900777096666       -1.08565962790966
C           86.29115553900373       -4.69845635770557       -1.57462047198581
C           85.71314317599122       -5.68093703435551       -0.86743916589469
C           85.65660015940637       -7.10471806904737       -1.35647532172025
N           86.61555030263263       -7.33172099355667       -2.44122284193308
C           87.02803772397364       -6.29168322455317       -3.23362226806794
C           86.92742915065081       -5.00752617006859       -2.84785408228052
C           85.10949459509131       -2.63858497424517       -0.86386635079122
C           83.80072462273178       -3.21723120174729       -1.12459270805663
C           82.89279987082703       -2.28123520712163       -0.78104220944348
C           83.64554646841955       -1.12565762164108       -0.32654982863707
N           84.97586621036685       -1.37402065077553       -0.39639692391887
H           81.95319581633262        0.05868433662883        0.11369851752189
H           81.93782199490722        2.53699848174797        1.02562832460793
H           83.82600169667529        4.34111671811639        1.60161359337689
H           85.71965534373223        0.80220200540895        0.30092881253048
H           85.51595459611715        5.51021040852822       -0.11248151417272
H           85.01648493149214        7.47206851611681        1.59467940781623
H           86.29486680725763        7.80130194237083        0.40961395467717
H           86.94470587169394        8.30193258537645        2.74543566405252
H           87.88543598976744        6.67355079479717        4.06316507108070
H           87.55043171582658        4.27281732969706        3.47613772035615
H           89.18640725525813        4.31039287169062        1.35404194125439
H           91.00966694607035        2.41973035682797        0.77416746865864
H           90.88780662985214       -2.61361854549975       -0.71721212993664
H           88.99230332341612       -4.38712239416303       -1.35835128349952
H           87.11819657403478       -0.77656535854602       -0.23363456988324
H           85.24161629496513       -5.49384744653547        0.09021190635600
H           84.63331213679687       -7.35094066582238       -1.69701778016434
H           85.90085057881726       -7.79558610753549       -0.53829938882570
H           86.50638998069343       -8.22446765527817       -2.90045424476561
H           87.51766059210972       -6.58889055613421       -4.15558850794456
H           87.30219354828175       -4.20335066520094       -3.46512618438600
H           83.62505294950203       -4.20160615226892       -1.52774980513918
H           81.81627061275142       -2.33390888163164       -0.83073327015061
C          170.62029607290873       -0.09951858530989        0.06770102109648
C          170.00490317320444       -1.31017407181078       -0.22221182646642
C          170.64909679198081       -2.55763361206937       -0.45610706718699
C          169.68324072431159       -3.48843264061475       -0.71684856234271
C          168.41719042017817       -2.83841649832038       -0.65959361783569
N          168.66232264481104       -1.53039955380136       -0.34816399319017
C          167.15334997787568       -3.40448179765395       -0.85653350000516
C          167.11136467361760       -4.84147710415054       -1.22270000321606
C          167.68412246361189       -5.29790924540237       -2.34672003886548
C          167.66674502944639       -6.75480846109801       -2.73043937299239
N          166.65896890735445       -7.49260837679269       -1.96433509254632
C          166.25162032398217       -7.04408695210381       -0.73465352553729
C          166.41482592026935       -5.76835689972117       -0.34214418322101
C          165.94272397405939       -2.71676871444162       -0.73326335492910
C          164.64358592806991       -3.31570769037081       -0.98178106875029
C          163.72812808445772       -2.34979757280868       -0.76161791657998
N          165.79574107755641       -1.40883884778934       -0.38901342676943
C          164.46906127834498       -1.15976749881799       -0.38933133658858
C          163.84039661998702        0.05964560483424       -0.07464673859383
C          164.48009425756632        1.27037700299067        0.24549412520865
C          163.84054933820246        2.49779015927134        0.56524034448467
C          164.81177700249205        3.43214111236828        0.79555238976223
C          166.07607680001024        2.80481337253661        0.61860298353549
N          165.82350760010567        1.49843973158357        0.29242777094390
C          167.34010248554159        3.38449470317937        0.77418166549432
C          167.37254339815135        4.82761638388351        1.11308522995538
C          167.92905811976078        5.27357411231359        2.24926002538057
C          167.98606464779243        6.73687450476159        2.60275290414233
N          167.04991645213670        7.51656843772484        1.78819774244439
C          166.66088221773560        7.06666389693167        0.55297898476143
C          166.76129744535734        5.77544284911027        0.19144749958462
C          168.55242291370689        2.70111752291126        0.63350258065912
C          169.86244132915849        3.32273124493502        0.74835385502028
C          170.76926075805497        2.34283900529694        0.55874256010492
C          170.01492858684540        1.12662355574114        0.31307474607255
N          168.68470791537615        1.38134297853267        0.35767456492146
H          171.70510921515782       -0.12175086887977        0.09908979728027
H          171.71607520285639       -2.71079766162648       -0.42082663546540
H          169.82773758841654       -4.53670852559751       -0.92230333096806
H          167.94075362622371       -0.82758560194221       -0.22722192775227
H          168.20096379490838       -4.63755919152572       -3.03343663238459
H          168.66599854521263       -7.20310789146130       -2.57365622861938
H          167.42755601163640       -6.86203421041333       -3.79714858107760
H          166.71242050648988       -8.49449346089228       -2.07838583310699
H          165.71400961448416       -7.77535373337042       -0.13950472682513
H          166.04270815288677       -5.41961084186382        0.61063198369725
H          164.47788143386381       -4.33540848744863       -1.28973318022217
H          162.65456886954431       -2.40837964100648       -0.84421104789094
H          162.77243568779738        2.63659940376469        0.61286042071631
H          164.66938336502992        4.46470862211511        1.07003536375150
H          166.54309788161294        0.80352682949092        0.12233405475468
H          168.38168723216748        4.59887765391175        2.96644342595345
H          169.01484505001400        7.12153344965406        2.47108483974220
H          167.71863856516725        6.88163819646202        3.65818880217396
H          167.16293744482317        8.51562084455382        1.88247432269301
H          166.18919921516837        7.81519802233907       -0.07575041222169
H          166.40478984090745        5.43039845725778       -0.76876842524978
H          170.03972423671073        4.36962294324425        0.93542433108218
H          171.84621403539560        2.40814359657641        0.56700258925333
C           92.45103833400340       -0.11089414022311        0.09240093034364
C           91.23028883933891       -0.09106904775418        0.07872661395679
C           93.80388548531653       -0.12008622085989        0.09540362460065
C           95.02499182013578       -0.11735531998639        0.09706672348728
C          105.93095112641141       -0.00263754027079        0.01446321539124
C          104.70803160205513       -0.00738255377861        0.02954976197296
C          107.27961837480375       -0.00017366765772        0.00447961399327
C          108.50264703486788        0.00174089879944       -0.00600514234534
C          119.41333089048533       -0.00160146571322       -0.00077279511988
C          118.19011616482021        0.00458363343951        0.00093337757357
C          120.76186598699840       -0.01018163133456        0.00032591176491
C          121.98509526656966       -0.01556087764376       -0.00082909051746
C          132.89756794447848        0.00047901622153        0.00000210625012
C          131.67429969276699       -0.00115925167232        0.00498355704890
C          134.24612792154326       -0.00531539524989        0.00202012647984
C          135.46932975292555       -0.00994048959404       -0.00372686794663
C          146.37979753574018       -0.01143233131592        0.00127274168037
C          145.15674767457887       -0.01317863885617        0.00824549800553
C          147.72849522321761       -0.00811406348494       -0.00417566144380
C          148.95147221377547       -0.00505011556415       -0.01560892152660
C          159.85590296722029        0.09863772383973       -0.06023038659053
C          158.63486112957534        0.09693285346584       -0.04865099184521
C          161.20886292652867        0.09466226778369       -0.06802786651435
C          162.42975758523428        0.08276482152776       -0.07758918232432
C           96.43458014916395       -0.11500230271076        0.08876535453548
C           97.06945553541725       -0.31061945737969        1.32862624238784
C           96.43115312200712       -0.48720755311294        2.58387410453044
C           97.40466792725239       -0.62216159452197        3.53546720495500
C           98.66727394674695       -0.54096597321877        2.88696971711646
N           98.41340778373416       -0.34822422956587        1.55513066225306
C           99.93145042676070       -0.61499302310694        3.48300759811630
C           99.96141267029817       -0.84724146288760        4.94903260462189
C           99.47495995986571       -1.97214142845681        5.49435231173713
C           99.54298944015831       -2.24713278915081        6.97370659068185
N           99.80496816208067       -1.01896153993043        7.72845839845990
C          100.44626366305575        0.03984905425737        7.14016382287500
C          100.52818377674976        0.18387316329020        5.80565452446175
C          101.15171354070883       -0.48887146928024        2.81762207308534
C          102.44142766790702       -0.63320526836250        3.46819131127417
C          103.37538567386156       -0.46672186328042        2.50859372642759
N          101.32362865389415       -0.24991955054566        1.48786637418453
C          102.65455002940772       -0.22586564209294        1.27428577367512
C          103.30350113851399       -0.00880519863914        0.04151429700214
C          102.66586540141179        0.20075299044560       -1.19707137040166
C          103.30329521406931        0.39179073200287       -2.45004491552615
C          102.32910012652488        0.53762491597930       -3.39979598268670
C          101.06718950014633        0.44720331398398       -2.75184635525772
N          101.32239871671858        0.23971037410548       -1.42189789484254
C           99.80317597650443        0.52142822433992       -3.34739781973124
C           99.77084211440066        0.77464170039361       -4.80966303855371
C          100.24983239239612        1.91111507890023       -5.33734338826020
C          100.17518804913449        2.21286871481168       -6.81103220178853
N           99.90073464668399        1.00111415387374       -7.58791267179196
C           99.27085848526546       -0.07198423602534       -7.01359946016802
C           99.20407297182373       -0.24358465534571       -5.68153807602035
C           98.58293513983295        0.37950146102844       -2.68387690300322
C           97.29229978751667        0.51709558336207       -3.33513750968424
C           96.35902312954642        0.33737055094436       -2.37780829240802
C           97.08051800510295        0.09819762970142       -1.14328891806198
N           98.41289151846087        0.13221357571825       -1.35693010672963
H           95.36323388621243       -0.50012919814437        2.73122272939630
H           97.26449817551358       -0.75705143344127        4.59553177250228
H           99.12756360695751       -0.23990969052656        0.84273942511660
H           99.07435988659580       -2.77452121637287        4.88572504226450
H          100.32584316511578       -2.99911278050657        7.18746775132404
H           98.58922484268240       -2.66427040100614        7.32448864425098
H          100.00401975293700       -1.17470990949901        8.70606792187601
H          100.80661946197969        0.79372346152891        7.83283696988792
H          100.97002668567197        1.06372242863107        5.36016733061391
H          102.58921981333584       -0.84676591440173        4.51464585649858
H          104.44929776326154       -0.50424802893622        2.59945320870999
H          104.37105665022001        0.40709531994992       -2.59825387902353
H          102.46884121198518        0.68498007932511       -4.45825753414175
H          100.60876792821442        0.12409693725948       -0.71009777532604
H          100.64784541164831        2.70514612158251       -4.71614661013017
H           99.39587110606610        2.97341594797649       -7.00603413622192
H          101.12950152742309        2.63107977346850       -7.15950702729859
H           99.68572659934129        1.17828309213156       -8.55847861882913
H           98.90557383679153       -0.81305342110646       -7.71742977274275
H           98.77138539211936       -1.13462064649771       -5.24947843994171
H           97.14336767624643        0.73507365046869       -4.38046975263423
H           95.28501416646655        0.36677161020765       -2.46976984113187
C          109.90695133114411       -0.00584044383698       -0.00708434331833
C          110.53318730382563       -0.21987269898594        1.23687048489614
C          109.88489499410753       -0.39910539517417        2.48561865720578
C          110.85103522100069       -0.55395670007111        3.44251997920555
C          112.11793827526775       -0.48215044681616        2.80279095866885
N          111.87456906663223       -0.27472164920611        1.47080445337223
C          113.37707748103199       -0.57557420172649        3.40750935895451
C          113.39136815904880       -0.82417069646328        4.87113006851319
C          112.89212876596909       -1.95210536217671        5.39822386664926
C          112.94352402561194       -2.24504042848316        6.87474501581362
N          113.20679025956773       -1.02779037542509        7.64669195855544
C          113.86078752530192        0.03357650372567        7.07711936006515
C          113.95656522609825        0.19292026133498        5.74529370273187
C          114.60435865498424       -0.45579498701381        2.75477073035086
C          115.88653035754655       -0.61562192380121        3.41627763627067
C          116.83093804691090       -0.45113424750668        2.46655516685786
N          114.79098440998888       -0.21006315940830        1.42786750915383
C          116.12385044365696       -0.19735900553372        1.22703115571419
C          116.78594509242852        0.01604373361266        0.00034322985537
C          116.15964242962245        0.23109850395398       -1.24352154157679
C          116.80797248362819        0.40979601282785       -2.49232555270235
C          115.84190529053765        0.56309443824958       -3.44958897870955
C          114.57481047135651        0.49131864064919       -2.81014524567262
N          114.81825521540789        0.28572252575761       -1.47773348021084
C          113.31557705529907        0.58237443166907       -3.41511240412979
C          113.29926644180605        0.82547096870721       -4.87953453207869
C          113.80151371475394        1.94920795071812       -5.41284691686302
C          113.74533148060839        2.23775444365591       -6.89005050469675
N          113.46637834198663        1.02117848720998       -7.65760339266811
C          112.81166332479629       -0.03565743523158       -7.08058779781240
C          112.72505484095232       -0.19175845927542       -5.74778945543057
C          112.08815969270503        0.46429631951239       -2.76172170604730
C          110.80580229441890        0.62438025071732       -3.42302255280972
C          109.86149323071919        0.46111038520035       -2.47296885217486
C          110.56870818199405        0.20783541254200       -1.23357141038102
N          111.90173467418363        0.22020155717858       -1.43468752423748
H          108.81606310066948       -0.40028854397243        2.62662846203174
H          110.70214073604961       -0.69599131208182        4.50044254731482
H          112.59386361452583       -0.17006062923473        0.76302552376066
H          112.49202764931664       -2.74437373159247        4.77617727522867
H          113.71876767883552       -3.00515367631517        7.08731527370893
H          111.98328110811467       -2.65933220904079        7.21100457018076
H          113.39648407673430       -1.19710184029937        8.62392145016121
H          114.21940448300215        0.77673782289221        7.78213484792490
H          114.40854945411260        1.07494879062874        5.31454616049615
H          116.02259872914495       -0.83671596506076        4.46275574460682
H          117.90358052328845       -0.49862301757921        2.56715333836547
H          117.87684707608376        0.41159741818788       -2.63307363164990
H          115.99096203519153        0.70410148869725       -4.50763137309323
H          114.09895248487501        0.18087162718678       -0.76999108597343
H          114.20695325836169        2.74228546835899       -4.79527272798294
H          112.97621296754669        3.00457322678274       -7.10066316260069
H          114.70761505034621        2.64221867919729       -7.23252946257029
H          113.26826668756703        1.19028878432633       -8.63319874607035
H          112.44388047047670       -0.77837208901404       -7.78136870088025
H          112.27223684398196       -1.07084924362549       -5.31190921334438
H          110.66925607890248        0.84522700703279       -4.46948308593599
H          108.78883781774094        0.50927259053209       -2.57329857138404
C          123.38926191679752       -0.02520259005508       -0.00042570527436
C          124.01627915833711       -0.23899984022929        1.24325971134655
C          123.36895393134864       -0.42040361327368        2.49215365502784
C          124.33588961380151       -0.57200901355395        3.44885334981016
C          125.60244159745703       -0.49597078228232        2.80890250828818
N          125.35790761608520       -0.29014454595909        1.47678478676109
C          126.86210894328333       -0.58352993343376        3.41346630907434
C          126.87892191090479       -0.82723576705502        4.87790203686471
C          126.38468813311502       -1.95491585764258        5.41020310350585
C          126.44136315696424       -2.24313778540393        6.88748128143916
N          126.70744880475563       -1.02384465315319        7.65529346255197
C          127.35529718604633        0.03798310059444        7.07968819907291
C          127.44392087236112        0.19433689499957        5.74703764282044
C          128.08914662607901       -0.46152411780050        2.76040937497399
C          129.37165537051567       -0.61723941989903        3.42235969862248
C          130.31584427210669       -0.45282531825196        2.47239981147609
N          128.27545109566529       -0.21771419422994        1.43316024272442
C          129.60839928351251       -0.20267472144919        1.23243362770220
C          130.27013702977007        0.01069237649129        0.00560244339434
C          129.64297693691702        0.22481200332261       -1.23799953987863
C          130.29030423964571        0.40641952608112       -2.48685108380022
C          129.32338434314698        0.55952495649391       -3.44331626484422
C          128.05685084901788        0.48402077476274       -2.80327637509551
N          128.30136505702114        0.27692125647277       -1.47135693228807
C          126.79719724684887        0.57314088369847       -3.40771759307756
C          126.78057198627295        0.82124917889419       -4.87135225948855
C          127.27757729951625        1.94964773115326       -5.39966021022146
C          127.22069236516246        2.24375514492488       -6.87572541463643
N          126.95168665584887        1.02797668676435       -7.64805939074691
C          126.30114271640113       -0.03430534737203       -7.07622848263846
C          126.21261101939442       -0.19554682380863       -5.74415363864285
C          125.57013954057985        0.45019416483759       -2.75486551643468
C          124.28758096097556        0.60688984295764       -3.41644923838098
C          123.34347249969845        0.44077757734412       -2.46670543661355
C          124.05101401887583        0.18908793678091       -1.22712975162264
N          125.38393403513105        0.20458906077618       -1.42790453263067
H          122.30014286521583       -0.42526311861747        2.63332686761946
H          124.18771317231653       -0.71470082854446        4.50679433822555
H          126.07669135191585       -0.18278399802297        0.76888700714122
H          125.98575144088835       -2.75077015688095        4.79198646477322
H          127.21746072855314       -3.00255889383903        7.09933560654427
H          125.48244711361592       -2.65668619594854        7.22848480539578
H          126.90378526708720       -1.19083272649647        8.63161179631833
H          127.71545557883988        0.78384916247634        7.78106639457696
H          127.89112583015763        1.07665312614880        5.31189824721387
H          129.50829885329978       -0.83604889810081        4.46923952001534
H          131.38858004364351       -0.49780544427873        2.57320139351584
H          131.35909713640780        0.41061469028402       -2.62813499196087
H          129.47148916497798        0.70270054182867       -4.50119733029298
H          127.58265480764170        0.16980009143347       -0.76334567453074
H          127.67873237861400        2.74210394273214       -4.77851255899850
H          126.44598475705344        3.00556240813798       -7.08410959626871
H          128.18021845020692        2.65669433332011       -7.21569799477977
H          126.75513928406534        1.19923397331220       -8.62360685750412
H          125.93877794805761       -0.77650838167848       -7.78035508580377
H          125.76336998888924       -1.07842546074501       -5.31225678294947
H          124.15067544442383        0.82737963062129       -4.46293501767986
H          122.27075920782882        0.48589941605635       -2.56765198634455
C          136.87351937740630       -0.02192274828703       -0.00228170022835
C          137.49900548445655       -0.23742191108800        1.24195757369921
C          136.85002187704225       -0.41643995836422        2.49038090174003
C          137.81559063927745       -0.56923733594978        3.44823995570936
C          139.08301036294955       -0.49693546902958        2.80954767241133
N          138.84027257248488       -0.29164057039156        1.47696653113100
C          140.34191567808978       -0.58705962599047        3.41530679422504
C          140.35730939599028       -0.82796563339159        4.88014435581796
C          139.85673105934970       -1.95172628819020        5.41488387593318
C          139.91103255302949       -2.23732372287955        6.89275099051890
N          140.18846212120829       -1.01918217978042        7.65839711367683
C          140.84132995063052        0.03796888816099        7.08008577312282
C          140.92863471028468        0.19198682484700        5.74707393134074
C          141.56964635710537       -0.46947342068527        2.76251691929978
C          142.85161002337148       -0.62851759328425        3.42482725042807
C          143.79645043922986       -0.46720291043235        2.47499563288789
N          141.75682714846630       -0.22747369591021        1.43519293892368
C          143.08992857641019       -0.21586025084442        1.23475368729363
C          143.75245031714309       -0.00429870171293        0.00829792084356
C          143.12695631253058        0.20937340382469       -1.23607736383032
C          143.77599974974220        0.38691108104533       -2.48465352573414
C          142.81046998925518        0.54335760326431       -3.44190572655531
C          141.54318000061605        0.47434469182306       -2.80258608532247
N          141.78574513418576        0.26649457764602       -1.47051478649850
C          140.28430834101982        0.57052205930910       -3.40758035074725
C          140.27110389909475        0.82115310033965       -4.87077253843055
C          140.77719369514082        1.94691459340939       -5.39617185939470
C          140.72764589902644        2.24245872545168       -6.87220340636887
N          140.45777748494444        1.02787061890029       -7.64603124941630
C          139.79700083827416       -0.03028809511225       -7.07823429418293
C          139.69988525114775       -0.19109183103914       -5.74668567389361
C          139.05664018034517        0.45207435775129       -2.75517919378064
C          137.77480757062426        0.61497189400671       -3.41663081893586
C          136.82994408110642        0.44970986002426       -2.46748359209113
C          137.53637870047692        0.19288509628266       -1.22827569271144
N          138.86934726127177        0.20439459052938       -1.42873401661716
H          135.78108239967497       -0.41864973778909        2.63058599322031
H          137.66588727736377       -0.71035459202224        4.50617499286321
H          139.56003418118081       -0.18664858833487        0.76970957392524
H          139.45356164017576       -2.74675801695486        4.79833774450335
H          140.68009599882760       -3.00344005490000        7.10600862910813
H          138.94836944478499       -2.64149488771711        7.23461209331285
H          140.38566380654299       -1.18616680957967        8.63452012580813
H          141.20718634793943        0.78259343273899        7.77984844388142
H          141.38008783253645        1.07118855267609        5.31001063454944
H          142.98744777357652       -0.84731411751401        4.47180883969342
H          144.86905713502381       -0.51535954854192        2.57578516539575
H          144.84487886599976        0.38592477094653       -2.62532375635930
H          142.96004376700540        0.68461352343879       -4.49982903847429
H          141.06611745758667        0.16354287053171       -0.76282443698704
H          141.18188486212276        2.73583947944646       -4.77283191965552
H          139.95667410776255        3.00720917625709       -7.08369086043527
H          141.69022539520566        2.65191438817597       -7.20767104947157
H          140.26939020020876        1.19974091848755       -8.62307293486418
H          139.43407188436305       -0.77015873919520       -7.78450926550858
H          139.24257006704752       -1.07112159604021       -5.31746277706101
H          137.63909625432612        0.83855596932583       -4.46261897161551
H          135.75739864683277        0.49881822053694       -2.56843122959129
C          150.35605179279190       -0.00408532239370       -0.02180339282122
C          150.98873027342921       -0.21423436149856        1.21919019618677
C          150.34616874757813       -0.40372047570183        2.46979603287232
C          151.31642401522680       -0.54993016400704        3.42346384768381
C          152.58107209704397       -0.46166986514615        2.78042446806451
N          152.33128543715250       -0.25473076533724        1.44934903062070
C          153.84254387286305       -0.53782385791180        3.38122017845641
C          153.86749739201238       -0.78896264043188        4.84402659314970
C          153.38278398229184       -1.92311746760281        5.37153105052854
C          153.44726375752342       -2.22114651121178        6.84648275015221
N          153.71800682020935       -1.00757906443413        7.62182247798982
C          154.35430668019046        0.06250631857589        7.04902778035719
C          154.43107401036625        0.23009019955949        5.71697232588607
C          155.06582077338999       -0.39862439463835        2.72256132382609
C          156.35376156449735       -0.53914863562743        3.37858744632350
C          157.29105033253512       -0.36112681410164        2.42479215262695
N          155.24140057471774       -0.15119451914164        1.39640388897043
C          156.57470208755834       -0.11951943140159        1.18776898780851
C          157.22512881730273        0.09543741499036       -0.04143639419423
C          156.59465954796926        0.29486104788044       -1.28305155320355
C          157.23811164700740        0.47232631475572       -2.53555265134717
C          156.26860020617340        0.60967685659074       -3.49077188224882
C          155.00335178390583        0.52927255876456       -2.84735761458541
N          155.25164466645074        0.33425638645032       -1.51481746525875
C          153.74184969995287        0.60574692561422       -3.44882204131871
C          153.71935229445609        0.84174972786472       -4.91426534555017
C          154.21401826794860        1.96574802038712       -5.45422072442225
C          154.15542782480355        2.24449388034913       -6.93324022519467
N          153.89386545207867        1.01884191362515       -7.69218143132691
C          153.24387207824668       -0.03823936270114       -7.11024463740993
C          153.15271099412902       -0.18465550850568       -5.77659675876618
C          152.51871119215633        0.47905447263762       -2.78891856856015
C          151.23163208618726        0.62535505851477       -3.44415544033062
C          150.29388862543775        0.45731235119564       -2.48850179407978
C          151.00984704565678        0.21391698350951       -1.25187622645431
N          152.34154079992231        0.23768656605142       -1.46024934667244
H          149.27781120984571       -0.41757396487342        2.61380624110087
H          151.17223140252622       -0.69617218108714        4.48147731354083
H          153.04802680162359       -0.14018698804313        0.74052219904675
H          152.98643276382234       -2.71765420578218        4.74992880766117
H          154.22418070814945       -2.98220027682990        7.04891862591538
H          152.49001004825516       -2.63706919720993        7.18960815441843
H          153.92500565236395       -1.18218725233143        8.59458721626495
H          154.71602511224162        0.80490840205150        7.75328383767450
H          154.86878126719827        1.11898616944089        5.28557765947699
H          156.49813544434471       -0.75782579493005        4.42442844441802
H          158.36471266619395       -0.39269407022290        2.52027037770667
H          158.30658878892848        0.48402299224513       -2.67875248777990
H          156.41313464813990        0.74532333770657       -4.55013020416148
H          154.53456688887505        0.22587604337788       -0.80538400271882
H          154.61516599773827        2.76469692083178       -4.84143840515198
H          153.37632529471770        2.99956065398979       -7.14982135476951
H          155.11261784627797        2.65921411318377       -7.27746922906294
H          153.70191478848869        1.17738806147835       -8.67076508147157
H          152.88466374381099       -0.78906476216284       -7.80679957690356
H          152.70428291592114       -1.06356051583970       -5.33583880494131
H          151.08790641467445        0.84120514149324       -4.49070379155421
H          149.22036750415370        0.49558495642825       -2.58360940740012
