442
 energy: -739.366933560293 gnorm: 0.000319634261 xtb: 6.5.1 (b24c23e)
C           67.08549197799347       -0.06514095010421        0.04898147923530
C           67.70121564916438       -1.14430833243344        0.66991527337263
C           67.05640912382138       -2.25813950162902        1.27749190244865
C           68.02383187154352       -3.08570759281565        1.77409930433411
C           69.29099013195220       -2.49896418573463        1.49463741888537
N           69.04556776281834       -1.33633631926335        0.82070299215622
C           70.55701231196549       -3.00082952850141        1.81673407879159
C           71.76828294876051       -2.39281709921466        1.48005803409849
C           73.06863225606492       -2.90217535669152        1.87752040732088
C           73.98411912049860       -2.05228073993728        1.36823668725444
N           71.91584899669189       -1.24559692429024        0.76130164301376
C           73.24168991814049       -1.02095777790332        0.66938927420627
C           73.87221673388095        0.04639946624974       -0.00207262321073
C           73.23070980476369        1.10760936801456       -0.66824448250822
C           73.86907434816256        2.16553159302705       -1.36842564330367
C           72.89742608649058        2.98918163048155       -1.86537498097138
C           71.63450696048307        2.46318042009349       -1.47538430949271
C           70.36990101628221        2.98047417417969       -1.77353308000118
C           70.33118606755068        4.24735131510719       -2.54421989264172
C           69.72215150965850        4.29245940265093       -3.79917737378586
C           69.69160677379887        5.47570465763781       -4.52158422947581
C           70.26327004879671        6.62796580802013       -3.99919555498438
C           70.86843647820155        6.59205013871230       -2.75031423959405
C           70.90565918283970        5.40940676057430       -2.02701445490813
C           69.15712114890518        2.39128535370387       -1.40074273214813
C           67.84978059835467        2.96859125703932       -1.67187652293532
C           66.94097319623252        2.11281135236515       -1.16246766471942
C           67.69197422000894        1.01913180810906       -0.57153285482510
N           69.02299937357398        1.22489874009721       -0.72618924981478
N           71.88829780484636        1.32177542701879       -0.76110793299894
C           70.59664510140770       -4.27624504030046        2.57432938178847
C           70.02191440232453       -4.36521281791416        3.84285000807601
C           70.06330838983132       -5.55800140306516        4.54924424582179
C           70.67283055862960       -6.67608544975360        3.99652366725555
C           71.24397482200365       -6.59639986365830        2.73365332442787
C           71.20901903951521       -5.40423233342352        2.02629836268149
H           66.00019020357233       -0.07917643236795        0.05427618683586
H           65.98802384926007       -2.39908706922349        1.31705575445944
H           67.87902391630233       -4.02500482631164        2.28275315618809
H           69.76703040532719       -0.71058914361959        0.47837893656482
H           73.23578769069367       -3.78243118639716        2.47680490797069
H           75.05851082236811       -2.09207057396855        1.45036773669955
H           74.93643446849207        2.27062225814127       -1.47777529995117
H           73.03920523932307        3.87775949420582       -2.45860313772077
H           69.28731710635208        3.39022061403119       -4.21463024730495
H           69.22054543476710        5.49765110990518       -5.49805885865797
H           70.23716554165682        7.55262836068709       -4.56450846614526
H           71.31327214835684        7.49005038958443       -2.33602223276979
H           71.36657519195110        5.38709317192952       -1.04566630905787
H           67.67681484452845        3.90761467418724       -2.17260277234117
H           65.86496019300840        2.19041486205813       -1.16349715487093
H           71.16976020411417        0.72232078595070       -0.36869590945722
H           69.55824952869237       -3.48914448812153        4.28277031147301
H           69.61898486939005       -5.61381998119968        5.53686393200914
H           70.70311089487333       -7.60812231794996        4.54938855121233
H           71.71884267843988       -7.46762658744476        2.29624494431361
H           71.64480686928094       -5.34681072296677        1.03509182602894
C          185.31665622559234        0.08189073537757       -0.03567361474827
C          184.69889579402439        1.10691952656671       -0.74064884358174
C          185.34149939188160        2.13824852258909       -1.48155974487801
C          184.37235304366664        2.94225391994489       -2.01237822700711
C          183.10632152158024        2.43402732655937       -1.60386470445018
N          183.35409267244185        1.32309308716880       -0.84850389521457
C          181.83917614517333        2.94127548676513       -1.91283803168018
C          180.62938790622593        2.37308354990582       -1.50810647180375
C          179.32825517346663        2.95442648142739       -1.78615669337152
C          178.41444404304761        2.12357133022574       -1.24350375831623
N          180.48407633074291        1.22346035363922       -0.79273285879815
C          179.15871867761697        1.04165575628243       -0.62813161481011
C          178.53010653447217       -0.03659706975872        0.02777499651125
C          179.17393216388203       -1.10342119180389        0.68263851415118
C          178.53836326079670       -2.20201539509636        1.31979218433056
C          179.51176952776322       -3.00473637425745        1.84678352994991
C          180.77289440167633       -2.41503570521748        1.55432782966765
C          182.03839093588093       -2.90072728074307        1.89858123196251
C          182.07958645373074       -4.14542672802960        2.70437957032008
C          182.70189279672627       -5.29066426819615        2.20534295343634
C          182.73531403161448       -6.45488777312646        2.95792135427745
C          182.15328810896452       -6.48915947895877        4.21786842434495
C          181.53468966818502       -5.35342466683928        4.72252115187754
C          181.49458969948014       -4.18873899629743        3.97083834021540
C          183.24978006841792       -2.30056823799284        1.53893743939789
C          184.55769030874220       -2.78784091798963        1.94869979630060
C          185.46479045770980       -1.95254192513828        1.40350338373858
C          184.71210604328473       -0.94969939057862        0.67063847368719
N          183.38174210155378       -1.18543604353777        0.78224448856919
N          180.51649900471287       -1.27347226802571        0.84128981901439
C          181.79595107888338        4.17706504111206       -2.73316910645610
C          182.37317375189531        5.35885320018930       -2.26676532225501
C          182.32829067428571        6.51213150994662       -3.03579677619143
C          181.71274151423924        6.49830895930620       -4.27999942022088
C          181.13887339862987        5.32568423114126       -4.75226826839966
C          181.17728063087009        4.17184689109014       -3.98418614477130
H          186.40193225736883        0.09673713480621       -0.04325621883374
H          186.40966520932261        2.23712123509190       -1.59166109631114
H          184.51534282607403        3.80770594909865       -2.63889278140994
H          182.63388209506519        0.74202207734903       -0.43268544367770
H          179.15957028436853        3.87996650109781       -2.31232882464014
H          177.34010700509614        2.21526022780581       -1.23934771574150
H          177.47160723784751       -2.35274251589797        1.35969193689582
H          179.37241976476017       -3.92933559760974        2.38278866688075
H          183.14493861392839       -5.26979516072034        1.21590404958298
H          183.21687241129354       -7.34026973805173        2.55781311484338
H          182.18178591959810       -7.39960711864113        4.80568981582650
H          181.08166623757936       -5.37362802208515        5.70754836202499
H          181.02321465450567       -3.29870203268385        4.37286833798926
H          184.73216033130225       -3.64538994536567        2.57844041983079
H          186.54059225450411       -1.98113542923239        1.47875026711594
H          181.23342074203634       -0.65244449616156        0.48077054688099
H          182.84144497910543        5.37595128774262       -1.28879147716239
H          182.77462552567584        7.42641150058350       -2.66055813670852
H          181.67982249852338        7.40027112261550       -4.88053931579389
H          180.65918299491301        5.30885381731103       -5.72462555302571
H          180.73926853226044        3.25368208917004       -4.35945861240489
C           75.27750172146631        0.06401581977158       -0.01640918705051
C           76.50189379980404        0.07889790003450       -0.03140466135932
C           77.84418398957283        0.08939249093987       -0.04430440210326
C           79.07473302307744        0.09318182081902       -0.05556813092274
C           80.41230422571086        0.09484496153015       -0.06458287802367
C           81.64300297891064        0.09200767132389       -0.07231761436934
C           82.98516077585732        0.08882086515463       -0.07573672567581
C           84.20991778373457        0.08146872140752       -0.07805518786717
C           93.86536246951214       -0.00681606152682        0.03134870033489
C           95.09035836364332       -0.01956181531503        0.04481254905635
C           96.43131458491827       -0.02824324867229        0.05477444615383
C           97.66245023521999       -0.03316713830041        0.06035133347078
C           98.99878740058477       -0.03502419059184        0.06139535256047
C          100.22995930892053       -0.03549064883753        0.05719722840078
C          101.57092809760829       -0.03269926566374        0.04973703926780
C          102.79601660990325       -0.02956076043749        0.03748003798367
C          112.44607789423871       -0.00415413927611       -0.00005730404780
C          113.67119849556268       -0.00811855386600        0.00589168131883
C          115.01204917166154       -0.00828423601574        0.01147562845050
C          116.24322583086818       -0.00868027058696        0.01546573507118
C          117.57943067402455       -0.00801722496812        0.01695943866869
C          118.81059792036039       -0.00735401989274        0.01574375572610
C          120.15143259421173       -0.00466006300778        0.01260584822214
C          121.37653596856450       -0.00461845037077        0.00563259769511
C          131.02524808164623       -0.00322087460633       -0.00394637345960
C          132.25035796920906       -0.00822697641661        0.00105964433585
C          133.59120445252358       -0.00967973491836        0.00579434623707
C          134.82236948703382       -0.01108269751409        0.00855045189616
C          136.15857094590447       -0.01055040642716        0.00992039291675
C          137.38972825420302       -0.00920690302186        0.00966474422315
C          138.73057320166251       -0.00563654317802        0.00759650178625
C          139.95570194537842       -0.00506952954103        0.00284131551652
C          149.60600086628952        0.00435263365936        0.02360490788444
C          150.83111700727312       -0.00072119746985        0.02928999421208
C          152.17209658460695       -0.00276141413609        0.03343018644211
C          153.40328376704150       -0.00635155066687        0.03432108645488
C          154.73961093246413       -0.01030948096335        0.03248058095532
C          155.97078434775085       -0.01290114978074        0.02677436810582
C          157.31176630116110       -0.01625191415742        0.01812596012546
C          158.53680466822593       -0.02076564926221        0.00491117033663
C          168.19271154547150       -0.07763226022897       -0.02206727713426
C          169.41742889703900       -0.08975491931781       -0.01111554691674
C          170.75942305782894       -0.09646084638043        0.00103624561140
C          171.99014486794604       -0.09976431171782        0.01285023834668
C          173.32761671221454       -0.09797497587113        0.02287422651076
C          174.55828124253188       -0.09163900031174        0.03013747412811
C          175.90052261307525       -0.07877888263239        0.03443195315146
C          177.12500729465577       -0.06058965216302        0.03373542296711
C           85.61434729210880        0.07348596589015       -0.07219951093239
C           86.24310179313599        1.22658959386045        0.43610870672684
C           85.59493281326209        2.37492312612395        0.96009404028808
C           86.56053832920183        3.26919213956618        1.33403510299407
C           87.82701342197302        2.69461738728922        1.04081175609519
N           87.58424095903105        1.45667063098260        0.50813343899689
C           89.08750331693959        3.26188932707077        1.26362176053090
C           90.30998812896074        2.64148425308601        1.00400258651471
C           91.59918643422704        3.28168598361776        1.19385999691138
C           92.53267537974611        2.37188897631505        0.84617292318893
N           90.48154570729042        1.37581387221638        0.53077936334927
C           91.81187730591931        1.18285335205534        0.43613571286536
C           92.46236356948948        0.00613554945484        0.01176495787681
C           91.83260027328900       -1.17032738975926       -0.43928652899348
C           92.47888418075330       -2.36716661270074       -0.84306164986844
C           91.51341020949694       -3.25827038377892       -1.22484865902244
C           90.24926964421945       -2.62657186106577       -1.07270789449827
C           88.98987399327862       -3.17299957004967       -1.34649760990341
C           88.97382501253286       -4.54789455285566       -1.90582171288228
C           89.57542674882069       -4.81826192068479       -3.13564582369852
C           89.55867965178950       -6.10336492188524       -3.65669829441955
C           88.94765262103145       -7.13340869119788       -2.95470258326609
C           88.34969156752653       -6.87281096764150       -1.72920696490956
C           88.35943781659483       -5.58807684406696       -1.20733377152678
C           87.76792933187149       -2.53238984749363       -1.13611594208086
C           86.48135060787418       -3.10928432191032       -1.48231687846724
C           85.54747503746944       -2.20449693167515       -1.12277550592272
C           86.26555390278962       -1.07377282945522       -0.56847821118053
N           87.59541218153858       -1.29318762172233       -0.59860686192219
N           90.49294815273281       -1.37001189582761       -0.58553772650547
C           89.10491374181231        4.63663883883528        1.82330382376681
C           88.53936155576280        5.69710435347157        1.11415982732367
C           88.55954747816332        6.98080937814564        1.63859459218845
C           89.13796775394489        7.21979279939450        2.87772943236821
C           89.69977694158480        6.16930965097897        3.59059630127139
C           89.68658918199051        4.88524918972295        3.06720547807873
H           84.52634125694297        2.49140282148333        1.04179571543890
H           86.41098754967707        4.23783393398588        1.78222653332178
H           88.30552051185803        0.80491589186822        0.21786444457151
H           91.74749277786596        4.29386281999460        1.53353316421853
H           93.60616366648090        2.47304025145432        0.85000777257868
H           93.54596251836327       -2.52017621960192       -0.83437687339281
H           91.66140244988021       -4.26754202804789       -1.57265744836649
H           90.04166317391417       -4.01240323435497       -3.69167993123041
H           90.02418683591819       -6.30077655171319       -4.61596969388789
H           88.93738296853037       -8.13790649401597       -3.36227733026431
H           87.87373901218362       -7.67453673210340       -1.17557006361221
H           87.90283081219378       -5.38838765851013       -0.24437955553077
H           86.33535485392443       -4.07009876962390       -1.94857710682719
H           84.47552979655248       -2.26770112412305       -1.22044302328355
H           89.77293521905781       -0.69104205509486       -0.36227828039805
H           88.09913624275231        5.51481374323898        0.14003458351933
H           88.12255548886037        7.79840803726482        1.07606673979328
H           89.15113631142827        8.22348998549605        3.28719313924520
H           90.15023782561092        6.35023500845062        4.56022138670881
H           90.11514548174438        4.06366361859770        3.63023481438155
C          104.19907620262279       -0.02174332653084        0.02405329642507
C          104.82181797690708        1.13502581460254        0.53265068810236
C          104.16770341642841        2.27034040250759        1.07685073069404
C          105.12752663249709        3.17751180018035        1.43473458738527
C          106.39573694221052        2.62377778221065        1.11131123418450
N          106.16036785320969        1.38435670479206        0.57848192752488
C          107.65218042026564        3.20970167403585        1.30733134802934
C          108.87730929444322        2.60624610439430        1.02176351026917
C          110.16178762274603        3.26230324384671        1.18697632665279
C          111.09974454879654        2.36299691701675        0.82418626966193
N          109.05542434077979        1.34241675158841        0.54573521922069
C          110.38599924844634        1.16505692430911        0.42800744007400
C          111.04308503956027       -0.00450219879946       -0.00605759498348
C          110.42092504704954       -1.18643979023699       -0.45361283803777
C          111.07585940753421       -2.37333767727460       -0.87238470336442
C          110.11599950545096       -3.27341565892450       -1.24756088601311
C          108.84687038217089       -2.65752775110714       -1.07525572118974
C          107.59008653269946       -3.21698700844115       -1.33525334834483
C          107.58144258562901       -4.58745149496102       -1.90524518249857
C          108.16866419992064       -4.84139847133828       -3.14546956576359
C          108.15774700902533       -6.12225271909422       -3.67702614824502
C          107.56720922641961       -7.16434536362809       -2.97527135406563
C          106.98397801322614       -6.92015078532307       -1.73934094252418
C          106.98774716780709       -5.63972155380340       -1.20694090281078
C          106.36458215738995       -2.59231655683659       -1.10114298164119
C          105.07924837822139       -3.18026912706497       -1.43241337458888
C          104.14130215572459       -2.28943871808559       -1.04920923263358
C          104.85573495633460       -1.15616213219480       -0.49544015064645
N          106.18678929409377       -1.35983575732549       -0.54902645953551
N          109.08197616944784       -1.40099122805977       -0.58397298605379
C          107.66097138277452        4.58476631452712        1.86608074359325
C          107.06151244465607        5.63509125190987        1.16969875403704
C          107.07295282827623        6.91952912755638        1.69252075519030
C          107.67635386983648        7.16931911225517        2.91753645629170
C          108.27190310276302        6.12896147585568        3.61774453096624
C          108.26753481106462        4.84424507464021        3.09578299354395
H          103.09947719656383        2.37019944672051        1.18189592492326
H          104.97300053740180        4.14154334870271        1.89109521659253
H          106.88526435314257        0.74562698546169        0.26890239823741
H          110.30399579417754        4.27676201900446        1.52241842940337
H          112.17182733941021        2.47704977096712        0.80843662714619
H          112.14466117752950       -2.51388690974201       -0.87834646749359
H          110.27115305081831       -4.27877107209933       -1.60350045867159
H          108.61871639675309       -4.02615926656288       -3.70116086986776
H          108.61163154061872       -6.30688015858019       -4.64437530027075
H          107.56140607799198       -8.16546536893008       -3.39115668576952
H          106.52416539840668       -7.73133519808080       -1.18584165037056
H          106.54264942698907       -5.45272292388309       -0.23608167299601
H          104.93644283862508       -4.13815791459280       -1.90562510332560
H          103.06868656513500       -2.36387144013254       -1.13021059052698
H          108.35667222167649       -0.73229576289501       -0.34720623715671
H          106.60147730740755        5.44449561732291        0.20637527024163
H          106.60942510610265        7.72919479065480        1.13985054018903
H          107.68260727886205        8.17353612901139        3.32588099791626
H          108.74189199310126        6.31831900831168        4.57642428379937
H          108.72235242606484        4.03041115477239        3.64937759549406
C          122.77953155012746       -0.00102196377029       -0.00108337118806
C          123.40325466943725        1.15348665997507        0.51129315898641
C          122.74990273103911        2.28975810892261        1.05445177434826
C          123.71071088062695        3.19327355929318        1.41884409320552
C          124.97877112933725        2.63643730074293        1.10015945210748
N          124.74224434366091        1.39874784813955        0.56379815734295
C          126.23609788439565        3.21824825638267        1.30220050438776
C          127.46039568966680        2.61215124744798        1.01846524304475
C          128.74599818892651        3.26507185750150        1.18705398872651
C          129.68254517391924        2.36467074124316        0.82332359914484
N          127.63647918562539        1.34885825478601        0.54033169438710
C          128.96687611051487        1.16888663568701        0.42409739872100
C          129.62223814095344       -0.00167826050623       -0.00983122711258
C          128.99862081059615       -1.18332572544268       -0.45621901799693
C          129.65212474027962       -2.37253608563418       -0.87061966032600
C          128.69129064698785       -3.27201679244938       -1.24479268864754
C          127.42304276845591       -2.65321812126137       -1.07678077397525
C          126.16563196312234       -3.21028767909750       -1.33897384291745
C          126.15464773968580       -4.58264607023117       -1.90429306833404
C          126.74511630364317       -4.84297595002083       -3.14163360717226
C          126.73162676336008       -6.12568701129017       -3.66864650554499
C          126.13524048183476       -7.16327332518674       -2.96516495670728
C          125.54866388417669       -6.91270045942154       -1.73209638766819
C          125.55496938901651       -5.63039199247370       -1.20427900662516
C          124.94125441536946       -2.58108273639048       -1.11155903533004
C          123.65543919585863       -3.16530895035357       -1.44749368825710
C          122.71889852943745       -2.27003266393511       -1.07131959295241
C          123.43476299282851       -1.13814423442536       -0.51647498911822
N          124.76524861132842       -1.34662372103674       -0.56324009255011
N          127.65952509687668       -1.39581071864044       -0.58841581143244
C          126.24706308287567        4.59161918472352        1.86500060364485
C          125.65270433552591        5.64586352409284        1.17018231524875
C          125.66609619676800        6.92855288239517        1.69724526894619
C          126.26635194699125        7.17266053775637        2.92494785013815
C          126.85686914297960        6.12838186893796        3.62358220715546
C          126.85058719436165        4.84540841290694        3.09738855071591
H          121.68148557030287        2.39257561034450        1.15462824012586
H          123.55687143205083        4.15681269044042        1.87647383489702
H          125.46675839231168        0.75846460809451        0.25653683422433
H          128.88979264869272        4.27850176616749        1.52492415373897
H          130.75487579364875        2.47653990540538        0.80923140819310
H          130.72066934857011       -2.51508485233683       -0.87418728584061
H          128.84521867127941       -4.27870441903859       -1.59747900816926
H          127.19966337415725       -4.03123095330023       -3.69877428683236
H          127.18805435912500       -6.31529083480207       -4.63383162340281
H          126.12743381346272       -8.16584543967129       -3.37750330976259
H          125.08420231559631       -7.72033389164024       -1.17728605285130
H          125.10711056936874       -5.43836891876926       -0.23567048225272
H          123.51151212837181       -4.12387554824353       -1.91899180021515
H          121.64643338780424       -2.34076151855095       -1.15746802769721
H          126.93492222941991       -0.72520923608776       -0.35488404375064
H          125.19517279457206        5.45971721508928        0.20479951924871
H          125.20655391838829        7.74131092445321        1.14578836306832
H          126.27410080195855        8.17551409751180        3.33660187959087
H          127.32439368308758        6.31329715336943        4.58433097971684
H          127.30147168836481        4.02850046881973        3.64967276504258
C          141.35869767197431        0.00041329727112       -0.00121943888985
C          141.97995318571310        1.15611797527334        0.51143183146650
C          141.32414347069209        2.29284871595797        1.05067701721852
C          142.28320919507337        3.19756279449336        1.41661752742008
C          143.55268802101199        2.64094185789103        1.10309433068921
N          143.31861480137928        1.40231537700856        0.56777555756879
C          144.80891183229312        3.22359691030460        1.30929143424693
C          146.03484810291187        2.61789828221992        1.03156281039055
C          147.31927088972171        3.27176052564990        1.20546712962512
C          148.25804522260401        2.37174896704297        0.84649691370724
N          146.21390330475688        1.35440582459886        0.55516418387004
C          147.54499686361035        1.17526246408279        0.44480289977524
C          148.20289574949248        0.00511128225259        0.01368406809308
C          147.58131234886181       -1.17693990303350       -0.43467242162793
C          148.23672776784758       -2.36593479720770       -0.84659251127537
C          147.27760870169197       -3.26570512948545       -1.22448229313555
C          146.00852068075909       -2.64734576731390       -1.06132564026403
C          144.75239266659702       -3.20515157255325       -1.32842973935815
C          144.74458291153042       -4.57727527010717       -1.89440340678180
C          145.34019945347609       -4.83661732090480       -3.12948927820262
C          145.32973307648095       -6.11907928199198       -3.65717314354768
C          144.73118209073581       -7.15741274971842       -2.95663810691426
C          144.13940640353721       -6.90782445971127       -1.72585624787249
C          144.14275810262970       -5.62578087463114       -1.19736474502628
C          143.52664090933169       -2.57719555260296       -1.10516314422169
C          142.24248431798011       -3.16277466675637       -1.44521172585381
C          141.30376725736201       -2.26878271330347       -1.07142531551851
C          142.01668084203652       -1.13614784703953       -0.51433254623791
N          143.34752160223101       -1.34301582357334       -0.55718668395600
N          146.24273917923060       -1.38992186559385       -0.57192466981427
C          144.81653860249037        4.59770286954168        1.87045673758806
C          144.22498354712164        5.65077921764558        1.17148799313791
C          144.23483136252992        6.93405290707061        1.69721291684232
C          144.82867202948327        7.17989710798903        2.92768518422616
C          145.41635946660850        6.13678308742297        3.63043196872480
C          145.41363448774069        4.85323592356089        3.10560096770943
H          140.25534180368709        2.39519049043407        1.14718477107996
H          142.12726524985936        4.16179662084092        1.87206885435005
H          144.04442939360769        0.76190789563307        0.26388104238953
H          147.46087574293603        4.28547510537481        1.54341371575038
H          149.33036355250931        2.48425340398325        0.83719244571636
H          149.30531080038145       -2.50820371905027       -0.84604898651324
H          147.43322748530531       -4.27233992726472       -1.57657284193699
H          145.79643361723103       -4.02429713681578       -3.68440818759469
H          145.79023297474794       -6.30790606492586       -4.62057573713954
H          144.72574500336148       -8.15979248341116       -3.36948411582085
H          143.67318950795604       -7.71602964697529       -1.17335351853729
H          143.69085989199155       -5.43456410021568       -0.23047379837354
H          142.10101945641000       -4.12131497567175       -1.91750726744371
H          140.23163644207094       -2.34072549090372       -1.16074096812669
H          145.51709079896202       -0.71947803698074       -0.34120751913168
H          143.77236328510924        5.46324999614401        0.20405841476456
H          143.77749552214425        7.74589354620853        1.14257599357302
H          144.83359871800886        8.18319046300028        3.33831193006738
H          145.87882909623167        6.32304740317921        4.59336346966654
H          145.86222867162095        4.03722136383959        3.66105887475213
C          159.93990026509999       -0.02409894232822       -0.00823278922401
C          160.57246802737450        1.12956530783248        0.49475611978220
C          159.92874609598508        2.27285166168711        1.03478564731309
C          160.89674133882318        3.17320956583168        1.38741593096516
C          162.15998511807445        2.60738616393054        1.06450814115134
N          161.91315215322459        1.36754646356419        0.53771603329654
C          163.42126794961075        3.18409124774168        1.25487150763181
C          164.64175305536273        2.56999381761539        0.96999991670865
C          165.93081999627523        3.21906995445667        1.12767403365452
C          166.86240215776957        2.31060731692025        0.77138239654693
N          164.81065314273175        1.30158741156227        0.50423003339016
C          166.14050289264770        1.11375026191610        0.38703503800982
C          166.78848289889422       -0.06597136918602       -0.03151888081476
C          166.15601107745013       -1.24713852671771       -0.46542620148480
C          166.79963297238103       -2.44484300883601       -0.87097550287403
C          165.83155603248215       -3.33811896094178       -1.24110742028563
C          164.56827987805286       -2.70742345161614       -1.07873314170781
C          163.30681521768491       -3.25618680932928       -1.33964140985117
C          163.28642653934676       -4.63035901799484       -1.90050534438294
C          163.87521230923650       -4.89847946705580       -3.13698907153983
C          163.85192478134039       -6.18238553747952       -3.66074407775472
C          163.24722888191766       -7.21350432505197       -2.95484830892512
C          162.66243733640363       -6.95526120133320       -1.72251291686488
C          162.67867104210958       -5.67171524639938       -1.19791642610762
C          162.08632576284379       -2.61858861595418       -1.11464781954405
C          160.79682059570166       -3.19725643821042       -1.44670435740183
C          159.86543252276508       -2.29648428559970       -1.07094048073332
C          160.58803238970034       -1.16635814047873       -0.52128883432984
N          161.91740151321494       -1.38144616815422       -0.57024638742148
N          164.81495666290974       -1.44929359826438       -0.59775408598872
C          163.44148095841709        4.56116703789965        1.80839948032248
C          162.84680800679274        5.61341579725535        1.11080754565309
C          162.86737643698760        6.89907170027967        1.63037363667538
C          163.47531354473571        7.14826495941751        2.85326523672293
C          164.06645609285937        6.10609530157981        3.55451673017310
C          164.05289475951844        4.82013776292249        3.03582777669788
H          158.86153337809696        2.38220257446110        1.14082752903558
H          160.75093133375555        4.14043608950566        1.83986911771340
H          162.63173691331443        0.72077463161071        0.23018619272487
H          166.08003723123309        4.23548524057741        1.45403839005295
H          167.93517209914418        2.41751655496718        0.75328222510721
H          167.86694187195826       -2.59647344222117       -0.87242906499423
H          165.97716556916103       -4.34821308156606       -1.58756198382086
H          164.33616033349412       -4.09170337706045       -3.69609123808332
H          164.30706057541227       -6.37797689077144       -4.62534893147549
H          163.23154734072750       -8.21699279132167       -3.36473602504513
H          162.19148391483478       -7.75782891764457       -1.16581789019854
H          162.23206740921805       -5.47379090990437       -0.22991431153924
H          160.64700831674386       -4.15636241470973       -1.91526087512033
H          158.79243767930188       -2.36220409684165       -1.15455496012231
H          164.09626578979930       -0.77052800345003       -0.36963618906787
H          162.38307572145931        5.42324354819378        0.14917159503203
H          162.40725281944427        7.71013768992416        1.07690643218527
H          163.48849208308661        8.15340397414611        3.25916976403525
H          164.53998876712134        6.29496813477054        4.51154451920554
H          164.50405078079737        4.00490440391343        3.59035989483793
