116
 energy: -191.230702175071 gnorm: 0.000740627695 xtb: 6.5.1 (b24c23e)
Zn          14.03128698033996       -0.05338099792585       -0.00428220090879
C           10.62001548460690       -0.07236474224859       -0.02733077088677
C           11.24695077390629       -1.31088514979158       -0.09458444326066
C           10.56966104964156       -2.57676973933359       -0.13770208563401
C           11.52611664270530       -3.53771596130013       -0.18055254980198
C           12.80084292850299       -2.86975704968770       -0.17251944363844
N           12.59579998620008       -1.52202685391864       -0.11391881664097
C           14.04963438541465       -3.50241571487431       -0.18943335753184
C           15.29077223288566       -2.85888614452499       -0.13884303540619
C           16.56831225372018       -3.51327981195274       -0.20233831788452
C           17.51770937893949       -2.54482943731567       -0.14079316828352
N           15.48865238385357       -1.50653901727934       -0.05192642125327
C           16.83119312997882       -1.29002729986231       -0.04716896932186
C           17.46509788048793       -0.03328868257240        0.02197825954425
C           16.81475370425487        1.21569618763648        0.08327259090181
C           17.48587197497808        2.48157858156980        0.12145604192522
C           16.52481028113599        3.43951309770113        0.16375621014805
C           15.25555247971879        2.76661933586235        0.16004759138136
C           14.00693279380314        3.39670387857486        0.18218955239508
C           13.99684617466825        4.87966141167907        0.26189726292091
C           13.45374668776872        5.63952255198215       -0.77491808766254
C           13.44680689601033        7.02440947142985       -0.70069564668406
C           13.97648527683896        7.66651169069644        0.41036328485235
C           14.51679722508916        6.91753069739544        1.44716354428740
C           14.52993901574214        5.53269634244378        1.37398220537064
C           12.76577560304630        2.75082176576484        0.13537703438106
C           11.48320189825590        3.39991453141460        0.20301068274078
C           10.53837046541439        2.42840337736339        0.14145778221292
C           11.23100449687422        1.17398202048890        0.04405600622641
N           12.57706509354886        1.40244212437216        0.04676615084879
N           15.46989175594172        1.41504326457310        0.10329665386673
C           14.05716433656608       -4.98567686916222       -0.26483368548815
C           13.52814652018183       -5.64110902183711       -1.37737887005547
C           13.53671660945395       -7.02629201182357       -1.44512614904808
C           14.06755895847750       -7.77321802947956       -0.40224326168760
C           14.59448802222838       -7.12868282836843        0.70870375595216
C           14.59227481977572       -5.74356355469554        0.77753316107529
H            9.53437737540608       -0.07985937794418       -0.02019219323544
H            9.49810085621806       -2.70211231039109       -0.12856100405871
H           11.38645999543719       -4.60676231451867       -0.20371808791803
H           16.71760982168433       -4.57700934159087       -0.29544352647901
H           18.58961849312615       -2.66127674036112       -0.16329153715286
H           18.55615834492298        2.61331922511910        0.11036630422154
H           16.66155376497530        4.50879365933274        0.18314602121325
H           13.05067836762250        5.13962410057140       -1.64874787976674
H           13.02661656608494        7.60494401752754       -1.51468190116470
H           13.96851523643553        8.74913771525553        0.46799039535362
H           14.92960788914516        7.41428953426365        2.31826310453015
H           14.94195816410674        4.94867774432171        2.18955792476106
H           11.33075202032571        4.46315492037008        0.29806421632845
H            9.46541190095100        2.53919194217716        0.16580580868071
H           13.12377263427867       -5.05889411839526       -2.19810938833080
H           13.12724868250276       -7.52488954993388       -2.31677848918676
H           14.07138623687061       -8.85606343001645       -0.45538486683633
H           15.00788789191904       -7.70756836421660        1.52714032445601
H           14.99362959063508       -5.24168766241251        1.65101443764393
Zn          27.50361853258854        0.05425124569312       -0.00123780525064
C           30.91491150630009        0.07393046889085       -0.02374427327014
C           30.28795041068713        1.31426301679687       -0.03273140525328
C           30.96529852616325        2.58072537086481       -0.01569150939426
C           30.00891401470562        3.54270499359899       -0.01606331538980
C           28.73415185962748        2.87522990270184       -0.04204166887304
N           28.93913705775931        1.52620492202606       -0.04458938355205
C           27.48528948800170        3.50812343991731       -0.03520261931533
C           26.24405588986021        2.86291686978592       -0.01644407475339
C           24.96650897970821        3.51915206300252       -0.05637562704379
C           24.01719420061385        2.54884186844931       -0.03711487925937
N           26.04623895550985        1.50806841356325        0.01340468441870
C           24.70374916304074        1.29134701758978        0.00643260328967
C           24.06974837752782        0.03284731963770        0.02422736278527
C           24.71996305660810       -1.21760405554497        0.03468349967505
C           24.04890455507746       -2.48413138166546        0.02370455578694
C           25.01010943562800       -3.44283960553525        0.02456835694920
C           26.27932423093574       -2.77011345379451        0.04399365522490
C           27.52786142769394       -3.40045136595695        0.03431286257932
C           27.53773782927068       -4.88567154291312        0.04974680293390
C           28.06685915442378       -5.60015527194667       -1.02570847302074
C           28.07287952324527       -6.98698041028802       -1.01152141026907
C           27.55678971156276       -7.67610874569439        0.07756516205588
C           27.03082659376786       -6.97232149148883        1.15271241042252
C           27.01803639966499       -5.58561685823996        1.13934162092655
C           28.76894389630331       -2.75341503412366        0.01122162148425
C           30.05143047031943       -3.40528883262570        0.04415535911759
C           30.99639562100217       -2.43215377739947        0.02556780443735
C           30.30390967216081       -1.17436645244956       -0.01084507099033
N           28.95780586801181       -1.40242411251286       -0.01558477202420
N           26.06490923829658       -1.41736949897204        0.04318274249576
C           27.47792590811333        4.99315232071332       -0.04697671015828
C           28.01565067848660        5.69538728505938       -1.12632348456286
C           28.00764763755080        7.08218100732063       -1.13500271903508
C           27.46840583307377        7.78412708846142       -0.06560328452405
C           26.93243586017287        7.09294258966774        1.01245542054256
C           26.93435815044825        5.70614571484518        1.02233511945724
H           32.00055463389253        0.08113184864556       -0.01664246044896
H           32.03683067123299        2.70545503373282        0.00164689570418
H           30.14873133234753        4.61164226883680        0.01098870689605
H           24.81694541842915        4.58575949134296       -0.10623271579769
H           22.94533866578886        2.66608999665110       -0.05763699165998
H           22.97856030377074       -2.61536401487966        0.01043711389954
H           24.87376725108616       -4.51208809307929        0.00180754404353
H           28.45980864347294       -5.06314027357659       -1.88191807374922
H           28.48178748796161       -7.53208884889800       -1.85515383710348
H           27.56418370593912       -8.76020432876730        0.08830564307474
H           26.62869191148679       -7.50599557614068        2.00676521459982
H           26.61660593013204       -5.03697696614864        1.98417838374584
H           30.20349201977797       -4.47192285467126        0.08807700027689
H           32.06937493480354       -2.54410741719905        0.04142492022582
H           28.42668135002515        5.14861199788904       -1.96796348707302
H           28.42463812826264        7.61735132652840       -1.98119912433663
H           27.46507316781504        8.86825604097908       -0.07254978618907
H           26.51216969004798        7.63654073548851        1.85130702453998
H           26.52603127846769        5.16770766950420        1.87049971288604
C           20.09271121188642       -0.00658423096235        0.02111831991747
C           18.87069471597982       -0.02229421240731        0.01891388714248
C           21.44208064109448        0.00679063551223        0.02157516903041
C           22.66414577877188        0.02213768202990        0.02191062872130
