132
 energy: -269.504647367829 gnorm: 0.000809228848 xtb: 6.5.1 (b24c23e)
Cu          17.00233691988339        0.02221245047136        0.05252777668477
C           13.59743282481514        0.11741410526167        0.09944657471288
C           14.22923703408683       -0.19973810812513        1.29238903397956
C           13.55064641793137       -0.52582586682982        2.51432557740440
C           14.50672182911684       -0.77445076901197        3.44284402156479
C           15.77937139537984       -0.58953226331223        2.79867216071813
N           15.57954980050640       -0.24959106145577        1.49219861598196
C           17.02385772454722       -0.75393668745047        3.41188166309450
C           17.03362179364773       -1.09497195635550        4.85563888963588
C           16.48855154679357       -0.21348455252207        5.79263912224068
C           16.49780726174946       -0.52659843996979        7.14188758864536
C           17.05213119635088       -1.73201902602897        7.54097431403347
S           17.07680537214701       -2.12969452786035        9.24803419694100
O           17.00835915522275       -0.94182654035814       10.04697556184714
O           15.64176697617293       -2.88672454619743        9.33574944414762
O           18.10278009928676       -3.08901324535122        9.53531259422529
C           17.60125685403522       -2.62619546541488        6.63629203054821
C           17.59071286060293       -2.30042167939874        5.29011102174397
C           18.25964427744895       -0.62305848097922        2.77433398144801
C           19.53592137754098       -0.72471883147474        3.42441987981483
C           20.48340602422029       -0.52609867747659        2.47343798870230
N           18.44995135762247       -0.35260950531327        1.44565735450616
C           19.79412691304741       -0.29530178599092        1.23937008050896
C           20.43131180641552       -0.05671818562660        0.00914667135858
C           19.77455171559454        0.20503203759360       -1.20594875807863
C           20.44212064571409        0.40037596996692       -2.45796521433762
C           19.48067102562488        0.63770532839876       -3.38580716410584
C           18.21807566577587        0.59769042040709       -2.70310294019549
N           18.42957345389990        0.32189923674051       -1.37869226115148
C           16.97424930326162        0.78984221434645       -3.30869537948438
C           16.96415390020384        1.12789830699283       -4.75321668448985
C           16.34635033548981        0.27760981726079       -5.67351388888905
C           16.33432694860488        0.59076079765511       -7.02286854731722
C           16.94388891198966        1.76307258805847       -7.43908518480335
S           16.92081291917517        2.17142562446422       -9.14446342762105
O           17.05587329671983        3.58610774782869       -9.33935511302124
O           18.32662477919930        1.48605630518682       -9.58199329254217
O           15.85002452383809        1.48556030140809       -9.80337120836774
C           17.56017789027502        2.62896312480945       -6.55017590329656
C           17.56921853795797        2.30402820921185       -5.20385052682101
C           15.73976750435834        0.69457720067051       -2.66161555104194
C           14.46205095268337        0.94934847484194       -3.27112762326667
C           13.51981969533719        0.75865264950210       -2.31525344660269
C           14.21267162732370        0.39729318707739       -1.11133924268550
N           15.55752133581790        0.36962788536783       -1.34876143870705
H           12.51291540847769        0.14884754124653        0.11474436855411
H           12.47907537569349       -0.56566039491343        2.62991859949160
H           14.36946204471823       -1.06885958429173        4.47085047448447
H           16.07112698265653        0.72999510506813        5.46073894220223
H           16.08826548466466        0.15422816275614        7.87748932735646
H           15.50425341270180       -3.23698505691587       10.22431096030442
H           18.03129949608961       -3.55718988294365        6.98370940789223
H           18.00594896291187       -2.99042360455916        4.56480964051926
H           19.68455256665692       -0.90822022350331        4.47617795751192
H           21.55540389761254       -0.52720110515458        2.58911722148743
H           21.50976682947753        0.35220071604436       -2.60072925686774
H           19.61061599320703        0.81033329244537       -4.44187885489243
H           15.88498289594222       -0.64044159813180       -5.32875566403935
H           15.85766568856976       -0.06057834228969       -7.74457158156944
H           18.64727539587852        1.87870232446458      -10.40340489067573
H           18.01664422271853        3.54324112647494       -6.90821194096095
H           18.03460638113589        2.97384506737184       -4.49016210257714
H           14.31291921096523        1.24790826830581       -4.29624764324024
H           12.44946637517141        0.85951957021238       -2.40101247114071
Cu          30.46726946590294        0.03962837947278       -0.04051441226246
C           33.87230218697324        0.14426985602808       -0.04719510916042
C           33.24111438839180        0.29045728439217       -1.27320783240254
C           33.92033633958899        0.43857499569747       -2.52885167497612
C           32.96475504289054        0.55155862928476       -3.48390629150816
C           31.69177630020170        0.48605570745786       -2.81753453704307
N           31.89089450711569        0.31889842701297       -1.47786555559472
C           30.44767062930428        0.56045696977558       -3.44875447435510
C           30.43880273404173        0.77684579016266       -4.91637643949011
C           30.98392880111136        1.94205327623692       -5.46149701947686
C           30.97556057793794        2.14894656661861       -6.83108743430800
C           30.42219818936181        1.17568322849453       -7.64723969981020
S           30.39849545542039        1.43596254132860       -9.38057519893709
O           30.46684025662650        2.83481265915364       -9.68476928833068
O           31.83382851613602        0.76493108237653       -9.74076861452151
O           29.37297729808331        0.65016117615462      -10.00210221870797
C           29.87293424018518        0.01063531477173       -7.13679909765428
C           29.88251477946487       -0.18332134433512       -5.76543111726415
C           29.21149855914138        0.44630926783557       -2.80877295847746
C           27.93558822500926        0.59182536722766       -3.45119735789270
C           26.98752807337962        0.42432220107617       -2.49481977978434
N           29.02039344536138        0.20615726343086       -1.47439513370414
C           27.67612936828155        0.18258206601375       -1.26243805945892
C           27.03824647118271       -0.05058141634015       -0.03156955872639
C           27.69429691641856       -0.25617976262639        1.19468213490559
C           27.02613179241095       -0.53697142036023        2.43000023507561
C           27.98704775901828       -0.65853615652577        3.38051630556210
C           29.24995164674663       -0.44332071509351        2.73197432112720
N           29.03918999405924       -0.21086824187936        1.39918934449517
C           30.49339452027423       -0.48785223650083        3.36649081526911
C           30.50283627772733       -0.70694641611637        4.83378222883163
C           31.12030444676611       -1.83713343123252        5.37512171845575
C           31.13172264559821       -2.04459614437435        6.74469335989457
C           30.52188046703473       -1.10889184279016        7.56427055630890
S           30.54363565515750       -1.36027833986136        9.29976971220211
O           30.40846336020129       -0.11817598523029       10.00439150614805
O           29.13750788913890       -2.15840808758629        9.45187332967678
O           31.61396754041819       -2.24160357264541        9.65860344414514
C           29.90623346315363        0.02435449119155        7.05789494003743
C           29.89780810259192        0.21975836218480        5.68673875805263
C           31.72827877495855       -0.33748287667853        2.73075689656612
C           33.00557683836468       -0.32565605085103        3.39205307798841
C           33.94843314742753       -0.15055594104121        2.43381437312213
C           33.25635306226913       -0.04217483162858        1.18108411860267
N           31.91136179273479       -0.15518320921472        1.39074935993772
H           34.95683779286114        0.17853144930852       -0.04934549928479
H           34.99196074675279        0.44342334349098       -2.65053264717447
H           33.10245894071934        0.65798297184821       -4.54786973735816
H           31.40068481413958        2.69654208389585       -4.80451850445099
H           31.38510722038980        3.05331048257283       -7.26324377376230
H           31.97153796266329        0.76697157228339      -10.69584544190542
H           29.44357843155542       -0.72657396992226       -7.80355019260125
H           29.46716020789648       -1.09231627496342       -5.34616229050286
H           27.78763116362620        0.81027765440955       -4.49634804307566
H           25.91558012676932        0.46552147793884       -2.60342853039090
H           25.95844835180381       -0.63486578540686        2.54422699271085
H           27.85655192270776       -0.88787795972109        4.42567413315830
H           31.58189394501256       -2.56295388817757        4.71583859892364
H           31.60807714071811       -2.91652921050431        7.17494744976277
H           28.81426313575500       -2.09410317115843       10.35908236144071
H           29.44977237532132        0.74185094161486        7.72819472537496
H           29.43287588932114        1.10598333630778        5.27076115638080
H           33.15410301711395       -0.42624509111873        4.45510326626560
H           35.01872397151299       -0.08860746973967        2.55138010318016
C           23.05961143949489       -0.08380052236427       -0.01323839024619
C           21.83795473259658       -0.07664332278526       -0.00548531683978
C           24.40996598729054       -0.08297908261494       -0.02078338953861
C           25.63157832775192       -0.07370860833433       -0.02596154414292
