264
 energy: -505.440116655985 gnorm: 0.000978437369 xtb: 6.5.1 (b24c23e)
Co          50.22287434419379       -0.05785296320314       -0.00215560344818
C           46.85294634844834       -0.15453111626151        0.03056196876323
C           47.52972120159468       -0.44539238601958        1.19549427298231
C           46.88624149206220       -0.78934729845467        2.42712941825547
C           47.84604132616435       -0.78590471661656        3.38123500070558
C           49.07816726645188       -0.44675068267568        2.73048371505576
N           48.88023595920418       -0.28790482664088        1.38229799919933
C           50.25496982121795       -0.14020158052556        3.39959176292078
C           51.41947423640903        0.19391972162396        2.72517810704585
C           52.66357524247099        0.49070637487628        3.36968755402698
C           53.60889655214463        0.52359130277873        2.40019871932268
N           51.59705820430332        0.09765657430779        1.36355775930197
C           52.94223867988340        0.24440277511205        1.16777310276352
C           53.61223749913388       -0.00472175687616       -0.03202230439012
C           52.92434033128644       -0.24949947056223       -1.22213381930037
C           53.56954661024005       -0.52117423815165       -2.46741823884378
C           52.60788487618416       -0.47701163384457       -3.42100189435746
C           51.37796205400105       -0.17321282913424       -2.75381000246781
C           50.18534076407519        0.11093614047336       -3.40381828602473
C           50.17491780649312        0.19179256568330       -4.88116312705745
C           49.35306278625262       -0.65207789921462       -5.63320836668747
C           49.34695116875597       -0.57132214548098       -7.01339678646350
C           50.15795895218381        0.35801136779369       -7.66769478948877
C           50.11238537991940        0.41000715364219       -9.14862641642942
O           50.92510441579913        1.33660839083814       -9.67854513825476
O           49.42038605670958       -0.29994115055479       -9.83317617322377
C           50.97988089942677        1.20320903616946       -6.92153857966402
C           50.98893258777294        1.11658841979199       -5.54052726885749
C           49.00232215704225        0.31326455321704       -2.70600369448724
C           47.74603187824189        0.63421365117667       -3.31848215733711
C           46.80421354579707        0.54401393686550       -2.35032621663932
C           47.48744071730501        0.18687014621630       -1.14433928985676
N           48.84096169539737        0.11218423380688       -1.35861486794866
N           51.57565055929108       -0.10118438979797       -1.39462039427488
C           50.26889907593357       -0.17935073339797        4.88125848662947
C           50.10987240836573       -1.39296385650435        5.55410863263134
C           50.12519883097108       -1.42993820337525        6.93628643605325
C           50.29487403920658       -0.25402894994077        7.66952927877336
C           50.30039017650396       -0.34494201033860        9.14941891322439
O           50.46931147640363        0.83778965259366        9.75941474669733
O           50.16748706624247       -1.37006384554561        9.76812321402307
C           50.45212190633313        0.96029441636151        7.00101723194232
C           50.44135238435346        0.99460236046180        5.61725616409876
H           45.76995106890445       -0.18621178896713        0.04174282471196
H           45.83055961496568       -0.98329057255127        2.53081273233398
H           47.73947908647487       -0.97265021102209        4.43746020869175
H           52.79033265363541        0.62880131660382        4.43101925282345
H           54.66809640086966        0.69997175179230        2.49626189656240
H           54.62518141323131       -0.70797687428332       -2.58141555955832
H           52.71018328727182       -0.63560162141324       -4.48217980233551
H           48.73239816907173       -1.38321942561733       -5.12784969812586
H           48.71575482528198       -1.22651242889401       -7.60367483446411
H           50.83651661916296        1.30707789345581      -10.64500813117671
H           51.60896745671161        1.92772062536456       -7.42500475441867
H           51.61848435609394        1.78149717487726       -4.96000082204262
H           47.61531991092487        0.88880887603550       -4.35772212053609
H           45.73943958691574        0.69654396184254       -2.42652251569620
H           49.98916986175345       -2.30785666712287        4.98536050590050
H           50.00754199152661       -2.36855539215979        7.46659218268315
H           50.46088761395164        0.69292269803100       10.71949220299901
H           50.58105458767324        1.87558229833176        7.56648640660984
H           50.55251282755822        1.93928887181128        5.09714870739642
Co          98.06765442205801       -0.04494524563018       -0.04918463513650
C          101.43664866204340       -0.13862190379089       -0.09696388386423
C          100.75867360153039       -0.29732618539401       -1.28659524286828
C          101.40012959587365       -0.50099771336982       -2.55002472729821
C          100.43881441552072       -0.39002361733768       -3.49625176595770
C           99.20811249518437       -0.12474409400282       -2.80951409269643
N           99.40796688955784       -0.11983707833582       -1.45243991459009
C           98.03167621494326        0.26085040505936       -3.43768914251658
C           96.86953966032668        0.52126340668995       -2.72776338952551
C           95.62632484283996        0.89791535102386       -3.33090383869199
C           94.68222091341379        0.82159417450392       -2.36253382124498
N           96.69262842831961        0.26685603592521       -1.38645369597261
C           95.34888880548529        0.39615549184900       -1.17264772413003
C           94.67901199966110        0.00763106890791       -0.00977228641568
C           95.36767746991347       -0.37879678432996        1.14226072777149
C           94.72313254571975       -0.79562390576711        2.34715944992723
C           95.68567403344944       -0.86568403289842        3.29833429533361
C           96.91529166424894       -0.48563764611202        2.67065581510290
C           98.10838775559077       -0.27879729032021        3.34824024092707
C           98.12149416797611       -0.37281163619318        4.82467975871289
C           98.94903675811454       -1.29579378575626        5.47005065954477
C           98.95887382468619       -1.37834592343639        6.85011303182374
C           98.14595595601918       -0.53632184829404        7.61142460290659
C           98.19675579913068       -0.65824284671796        9.08818463622297
O           97.38233704340237        0.19616999648573        9.72556492616274
O           98.89434842942440       -1.44040551768741        9.68232528616497
C           97.31804199614646        0.38693814687411        6.97210166789058
C           97.30527410680324        0.46381007756831        5.59050622910947
C           99.29027988181743        0.00671323383626        2.67737401701260
C          100.54644474665666        0.25865517408756        3.32149892941311
C          101.48717604370189        0.28414867333916        2.34834194905797
C          100.80329926468059        0.06613773948334        1.10996498344865
N           99.45034802302828       -0.03709885901878        1.31585176217364
N           96.71634871474977       -0.25360808187970        1.32954166915614
C           98.01663260523888        0.39219408063486       -4.91402377274406
C           98.16750530311000       -0.73713010774125       -5.72193002071317
C           98.15215116127651       -0.61495393274908       -7.09920346401421
C           97.99095424553194        0.63856124194597       -7.69239561962389
C           97.98693491058997        0.71844519500253       -9.17295169248510
O           97.82988519587742        1.96486490699105       -9.64301930997498
O           98.11207005725957       -0.22996494404931       -9.90525983552610
C           97.84132591228915        1.76901528455843       -6.88868554346578
C           97.85173264840768        1.64401595230975       -5.51015933605502
H          102.51968143002848       -0.16708313936549       -0.11303304821926
H          102.45552914265340       -0.68248361669589       -2.67657677336911
H          100.54341388055833       -0.45716174406721       -4.56695198945863
H           95.49921737243346        1.16069819014804       -4.36838329540237
H           93.62390276311314        1.01359682535715       -2.43553629952070
H           93.66737199002937       -0.99345556396459        2.43929160968147
H           95.58388721040596       -1.14855002661380        4.33338700831740
H           99.57137779206980       -1.95943380094848        4.88060278193156
H           99.59475419916386       -2.09560188664779        7.35736919628450
H           97.47494483011077        0.05482837164209       10.68171217794718
H           96.68728161539936        1.04408420313712        7.55898956324203
H           96.67131385991705        1.18991871940191        5.09422811200788
H          100.67798717088165        0.39212851530106        4.38300519341370
H          102.55153617607506        0.43053897530464        2.44050839674813
H           98.28215670903903       -1.71205215829197       -5.26209404788391
H           98.26355488624347       -1.48719745428109       -7.73390991352484
H           97.83951159914092        1.93149032659515      -10.61338359107481
H           97.71871490594106        2.74402364124561       -7.34527437659441
H           97.74662987736620        2.52335196833968       -4.88484677279808
C           58.81337777083208        0.00212638210462       -0.05215579420045
C           57.58497125839421       -0.00100838449797       -0.05198733503592
C           56.24025961333243       -0.00215361448751       -0.04750788546500
C           55.01660882078588       -0.00409776638036       -0.04183894902047
C           60.15774932120436        0.00409646930983       -0.05112319623759
C           61.38179613823505        0.00746691227374       -0.04822902499420
C           74.76112213511334        0.03175816268981        0.01644561086111
C           73.53151040556986        0.03038245065009        0.01557890420937
C           72.18924191209068        0.02755520091598        0.01276163082966
C           70.96424217883910        0.02559038587453        0.00733391748496
C           76.10337990757424        0.03306167669094        0.01468364878775
C           77.32840640321716        0.03407915661575        0.01318441141848
C           90.70762342817730        0.01243838372076        0.01401383343201
C           89.47887632561310        0.01477305065560        0.01832933854267
C           88.13521268625414        0.01781183165486        0.02053102431643
C           86.91085016683726        0.01951269104232        0.01877252528687
C           92.05159659238568        0.01065835357340        0.00843094543403
C           93.27557617772882        0.00867269722024        0.00161775239736
Co          66.17357417048993        0.01745515130307        0.00159647066487
C           62.78457725082422        0.01012642260907       -0.04278791712345
C           63.47103304654875       -1.17106534874372       -0.33888383957126
C           62.83063580963642       -2.39902279724824       -0.68797594815589
C           63.78751082299146       -3.35897342929441       -0.65539276087285
C           65.00685074999508       -2.71258319035359       -0.27492192792433
N           64.81368860605888       -1.35645221702365       -0.16057048475294
C           66.17697937266553       -3.37802913875250        0.06894538822467
C           67.34746539177480       -2.69486340708577        0.36965864643490
C           68.56883589863911       -3.31598205122259        0.78452502096128
C           69.52452825605218       -2.35460696402671        0.75743268203405
N           67.54094171030070       -1.34815924307378        0.16774475269820
C           68.88083629902501       -1.14988199308776        0.34007859427842
C           69.56363327798354        0.02270492580868       -0.00049807176250
C           68.88102996804743        1.19237997985523       -0.35069693220092
C           69.52805365110626        2.39992198197463       -0.75532119813596
C           68.56935762907457        3.35717415892674       -0.80200348849019
C           67.34261916162710        2.73136403208859       -0.41010111927279
C           66.16507937317819        3.41117229844699       -0.13127440583880
C           66.15528302515735        4.88876346045120       -0.19014085632045
C           67.02936477422894        5.63680551129143        0.60344763980937
C           67.01708123879710        7.01800425279274        0.54341905515002
C           66.13527908425515        7.67743310459354       -0.31494771731453
C           66.16411947004414        9.15986096387439       -0.34755488529452
O           65.27913138259986        9.69489053214525       -1.20144039492079
O           66.90270657554605        9.83966965926443        0.31838167980684
C           65.26138571370406        6.93544951178300       -1.11004306940440
C           65.27079100286029        5.55331856784019       -1.04397292404111
C           64.99311421863115        2.74259438458687        0.20133329434213
C           63.76885791839758        3.38446416432355        0.57260199438703
C           62.81596636541179        2.42006769884365        0.60299833510216
C           63.46341766132954        1.19451194444823        0.25925132190088
N           64.80499169461571        1.38676452762349        0.08125526895413
N           67.53612891772775        1.38374532948298       -0.21069335714758
C           66.17347561366215       -4.85596423314977        0.12088102335177
C           65.28127593028520       -5.53039470166487        0.95913697655090
C           65.28244718678053       -6.91185494921997        1.01191236990439
C           66.17055371848929       -7.64540240453635        0.22307790896240
C           66.13042451216988       -9.12537191756203        0.31300059221708
O           67.01895693095088       -9.73568704006974       -0.48470937222891
O           65.38145988631904       -9.74189945104076        1.02694911774746
C           67.06070708322063       -6.97728396763370       -0.61809646286123
C           67.06258911094790       -5.59420855296502       -0.66472396948100
H           61.78135518203972       -2.50039629113138       -0.91363486704492
H           63.68607820436062       -4.41149779829278       -0.86399524292134
H           68.67174375365003       -4.35359579606073        1.05730342922159
H           70.57403911328883       -2.43966049066744        0.98872587203497
H           70.58174851570908        2.48952629270320       -0.96476728522753
H           68.67442761525604        4.39559299555576       -1.07082541700778
H           67.70542968577122        5.12729428456804        1.28052550574191
H           67.68866819233776        7.60499548575207        1.16024725190993
H           65.36046036707606       10.66179196452929       -1.16458440694666
H           64.57744435094165        7.44302888516148       -1.77987646854202
H           64.60104249432915        4.97643146755472       -1.67166892038449
H           63.66218863710905        4.43678067359296        0.77986881287094
H           61.76548757466676        2.51678354701043        0.82508220205267
H           64.60014106874452       -4.96225543396385        1.58234073403142
H           64.59750981317637       -7.44159992607716        1.66477166150130
H           66.92989394108793      -10.69556417157060       -0.36804504089219
H           67.74901773710759       -7.54296109715323       -1.23481432844951
H           67.74516253029643       -5.07529794219203       -1.32818323201456
Co          82.11934259375809        0.02436087008695       -0.02655898068336
C           78.72898576659797        0.03195568185310        0.00797321449655
C           79.40833778978926       -1.16769034183194       -0.23051115338138
C           78.76007213807235       -2.40422823456816       -0.53138829032393
C           79.71665710075482       -3.36420272837761       -0.49010335137821
C           80.94290291942549       -2.70950571522425       -0.14757417280158
N           80.75064088709138       -1.35020023740046       -0.06050104975264
C           82.11755278213134       -3.36425612167101        0.19687671217290
C           83.28830343087867       -2.67148246208096        0.47900757581669
C           84.50790760639514       -3.28215946007941        0.91332796188968
C           85.46334988311527       -2.32120407607688        0.86768136352653
N           83.48020265631924       -1.32979021502179        0.24990099721373
C           84.82211497527759       -1.12831846118721        0.41420770396241
C           85.50888388541853        0.02154017422438        0.01288170566931
C           84.82993210262735        1.17218963611517       -0.40048854266120
C           85.47750991020281        2.35842038011774       -0.86165646373123
C           84.52367635811184        3.31998231769476       -0.92972700733637
C           83.29926187141669        2.71699280560846       -0.49861243452321
C           82.12787061755454        3.41467087304276       -0.23115218188441
C           82.13723994620237        4.89095012435224       -0.31828685406997
C           83.02396269906265        5.63613782432563        0.46417113052878
C           83.02843884538009        7.01654306542806        0.39066900810431
C           82.15140620459444        7.67800165428119       -0.47105908265200
C           82.19429580971000        9.15995783907325       -0.51274052855401
O           81.31529704935492        9.69855604467930       -1.37020630080231
O           82.93982224067459        9.83629959039756        0.14924636018887
C           81.26812528292349        6.93882752007137       -1.25829624501261
C           81.26060903638066        5.55717208174402       -1.17858027107173
C           80.95259431670377        2.76621882186089        0.12272438951971
C           79.72973942143906        3.42880747822020        0.46271820210893
C           78.77142330919592        2.47194254519650        0.52399297272818
C           79.41479882212197        1.22978324518287        0.23490674798965
N           80.75778135261722        1.40580088872276        0.06035011625414
N           83.48822328551145        1.37941929867874       -0.24532002854525
C           82.12530840835326       -4.84161995771544        0.26331452205151
C           81.24609929874087       -5.51920137856987        1.11245148054339
C           81.25637006071470       -6.90061407393806        1.16853449999468
C           82.14091106180764       -7.63078360753634        0.37259608918285
C           82.10940071602973       -9.11082746337856        0.46399008419132
O           82.99743994447221       -9.71658709788812       -0.33786220810710
O           81.36768845247877       -9.73130153273807        1.18213354686798
C           83.01985235545060       -6.95930482490631       -0.47767111035030
C           83.01266015728345       -5.57649870582918       -0.52765433478327
H           77.70735955255040       -2.50948022006021       -0.73856053386318
H           79.61037609317856       -4.42151970871889       -0.67012283267475
H           84.61007216577610       -4.31329827799562        1.20992536836626
H           86.51220769595477       -2.40125307544614        1.10364457505935
H           86.52853492580142        2.43453558912933       -1.08908238345029
H           84.63060103964924        4.34666838679209       -1.23978709162550
H           83.69589382428590        5.12466787656481        1.14388713049835
H           83.70842277427185        7.60146551700426        1.00020044401261
H           81.40625977629334       10.66482616549933       -1.33828666879313
H           80.58914179118358        7.44820882298765       -1.93185686326551
H           80.58296309498516        4.98240671787655       -1.79974736195395
H           79.62736577183530        4.48901378658684        0.62731314395036
H           77.72009780872351        2.58246913116958        0.73536426823491
H           80.56773282351155       -4.95356148060478        1.74095368433603
H           80.58070102808314       -7.43297964542788        1.82895053014655
H           82.91469943641366      -10.67691560798640       -0.22022227039700
H           83.70589511606285       -7.52224473660239       -1.09942242137421
H           83.68646871282837       -5.05512913996426       -1.19813072353395
