193
 energy: -369.770380501508 gnorm: 0.000463612677 xtb: 6.5.1 (b24c23e)
Ni          31.70447362863892        0.10487908428372       -0.30600635929061
C           28.32624335929212        0.06610227360772       -0.05051255498172
C           28.95914138293541        1.29100680617469       -0.10206440779714
C           28.26979355672693        2.54519157775113       -0.10048460675620
C           29.21801294782964        3.50984116953140       -0.05039451186385
C           30.48660169182752        2.84284464821987        0.00096937214865
N           30.31796679374496        1.48346050462214       -0.08326958199602
C           31.70075588885131        3.48779446064763        0.20104080870846
C           31.70341046015162        4.95525213632766        0.40903183349688
C           31.00500396197465        5.52115271842302        1.47197034577248
C           31.00783734530836        6.90195091976579        1.66510428580816
C           30.24247037726055        7.44427981986819        2.81602823995147
O           30.31605708682880        8.77841155153022        2.92747038988394
O           29.60732397433222        6.77182980594936        3.58727716247424
C           31.71232824453072        7.72891624910633        0.79034567937110
C           32.40849159151298        7.16794917453619       -0.26886962225042
C           32.40690115163130        5.79341284429262       -0.45950994869741
C           32.91279642998471        2.80926856922502        0.23028942597904
C           34.16954519714131        3.42657953994171        0.52817061878393
C           35.12223818461091        2.47826576114441        0.35610194484846
N           33.09194655783810        1.47952436154794       -0.07502864949806
C           34.44583566877839        1.28526890575321       -0.04248902277149
C           35.10894292088987        0.12618424745262       -0.45613135933230
C           34.42722310946657       -1.03407961286310       -0.83467495133961
C           35.07883387761682       -2.20378131593241       -1.33134020421450
C           34.12127826253495       -3.15219391307896       -1.47288692756539
C           32.88876787063841       -2.56237988219049       -1.04525866351227
N           33.08204643249486       -1.24332819558578       -0.70230216817169
C           31.69508007326500       -3.26072601930709       -0.91714478422984
C           31.68701506742698       -4.71778920165832       -1.19014631276060
C           32.48754408865533       -5.58401891722807       -0.44211307952272
C           32.47657871414517       -6.94930095632879       -0.69165116987205
C           31.66940564649686       -7.46628867058126       -1.69112235006017
C           30.86535090158003       -6.61078804012684       -2.44594356048231
C           30.01354096621923       -7.20345519785430       -3.50754243284900
O           29.26903808121999       -6.30204070070630       -4.16446415799797
O           29.97548760989806       -8.37804459962299       -3.77108197253315
C           30.87430970522714       -5.24043399120167       -2.19395299980821
C           30.50784211147511       -2.64997544361893       -0.53177084181323
C           29.27523838499420       -3.35020949572236       -0.31602021224859
C           28.33055407851845       -2.41343941416814       -0.06570671993771
C           28.98691451749315       -1.14293851733511       -0.12230683551884
N           30.32891987987851       -1.30000228472353       -0.36508056840980
H           27.24634446153703        0.05300128551034        0.03906404144638
H           27.19748840820529        2.65316391741747       -0.13579121083137
H           29.08296745640769        4.57917115521578       -0.04627723473194
H           30.46384960676741        4.89289533745320        2.17101442257898
H           29.79274773521192        9.05287790223863        3.69802431113644
H           31.71204142387069        8.80163568653505        0.94092707912884
H           32.95589910611204        7.80507072946241       -0.95427949783409
H           32.94307324316761        5.36248746749486       -1.29767263255654
H           34.29629687144291        4.45159057530461        0.83629677792727
H           36.18976871933955        2.56547347609018        0.47858985835537
H           36.13400974779762       -2.27481546186519       -1.54055955387380
H           34.22999224291360       -4.16148194696240       -1.83499167090347
H           33.10959746421032       -5.18289345567748        0.35019490921606
H           33.10001210213902       -7.60984483083808       -0.09995989745540
H           31.64873430412347       -8.53008155907098       -1.89916810012344
H           28.74496176839616       -6.76671584573875       -4.83697759208129
H           30.25883114100932       -4.57681910743083       -2.78976530645496
H           29.16130236477914       -4.42152282648502       -0.35014925908853
H           27.28015754651304       -2.55024582389532        0.13616142186300
Ni          58.49852815736647        0.15306278670090       -0.11214314329643
C           61.85984069556196        0.04883395415923        0.32136317284275
C           61.23220080694175       -1.08717021648716       -0.14625741521768
C           61.92761422867504       -2.28411753810472       -0.50923801277178
C           60.98679928397030       -3.18065224424390       -0.88671818875806
C           59.71383788607493       -2.54067606606394       -0.72223746723080
N           59.87838827935668       -1.24234683583236       -0.30782097833006
C           58.49324636884790       -3.18312720853496       -0.88410004597509
C           58.48474345991047       -4.62000809927259       -1.24999981480315
C           59.07731804984540       -5.56762243851485       -0.42034695576346
C           59.06911074255139       -6.91745060228924       -0.76971784447502
C           59.72149403899218       -7.87846860280038        0.15519498115714
O           59.64628381588437       -9.15266518468368       -0.25543266307067
O           60.27384971370218       -7.56780378151561        1.17928788800225
C           58.46460835052373       -7.32870552666442       -1.95742632949620
C           57.87201459177559       -6.38717450156782       -2.78423160002943
C           57.87924193687245       -5.04403984611467       -2.43532560895520
C           57.27632596922754       -2.54353760077013       -0.68427766609717
C           56.01127658600151       -3.21294915119475       -0.71378173806924
C           55.06272569894391       -2.26654049118622       -0.51319115377766
N           57.10416010111737       -1.20043602112479       -0.44054500379084
C           55.74930215887363       -1.02252031109638       -0.36921810332126
C           55.09230513765296        0.20733075446714       -0.27826089851542
C           55.77762815371931        1.42238697275044       -0.18774141490171
C           55.12561819667708        2.69253727431356       -0.21975526720849
C           56.09195513660369        3.62968492340008       -0.06626580683250
C           57.32926042672403        2.92589055795800        0.08605488775225
N           57.12798634322095        1.56875853735612       -0.03088231895323
C           58.53709931640432        3.54049076269507        0.38702063811022
C           58.56246539982979        5.01168818871369        0.57498993869694
C           57.82443581427185        5.60969023621738        1.59870511657005
C           57.84949473538389        6.98605961623575        1.77632449866460
C           58.60771485914825        7.78131206307310        0.93339882396568
C           59.35023727371532        7.19493063641266       -0.09273611817179
C           60.14915248457084        8.08194190528099       -0.97556296243127
O           60.83312284867599        7.42314837948310       -1.92213269897199
O           60.19485768161582        9.28089982580433       -0.87087903393978
C           59.32892823650881        5.81278817107709       -0.26843225246024
C           59.72018243089995        2.83121149846271        0.55039995511335
C           60.95511237178786        3.42268906905981        0.97573649542350
C           61.87992426848894        2.43446895651528        0.98640102694223
C           61.21166826571144        1.24268882905079        0.56015233042810
N           59.88129931676480        1.48736153483763        0.32645623827052
H           62.93156816412413        0.01094038189551        0.47756867607276
H           62.99932588890970       -2.40005263222920       -0.48243980753746
H           61.12972399210340       -4.18791022666588       -1.24251650060667
H           59.53834006763420       -5.26886143587959        0.51472824474994
H           60.09420684214904       -9.71404623152026        0.39815632170859
H           58.46101234394568       -8.37757347660195       -2.22812503418719
H           57.40184428505229       -6.69956173863316       -3.70980946906765
H           57.42411982019828       -4.31129500951814       -3.09230620341072
H           55.87710567549208       -4.27283488648517       -0.85611895655279
H           53.99178869409394       -2.38327975561256       -0.47220498042615
H           54.06513751813495        2.83373937100626       -0.35258297993203
H           55.98564650833454        4.70209991365467       -0.05541434892871
H           57.24000020605910        4.98724987049657        2.26708381143047
H           57.27484624830296        7.43625709883914        2.57777668975636
H           58.63697355678946        8.85802343963800        1.05673090062415
H           61.32415559347898        8.07046536574597       -2.45408520168790
H           59.89812662907711        5.36005201740548       -1.07174980766825
H           61.08162229200707        4.46029545847531        1.23894246568395
H           62.92505287625058        2.48934196554634        1.24627889387910
C           37.73367163835294        0.15253936698385       -0.56264901117806
C           36.51332194191845        0.13554713198746       -0.51052614995510
C           39.08200406431832        0.18299506998764       -0.63063701775939
C           40.30082377084191        0.22576685225906       -0.70269706586182
C           51.12037872262345        0.29246371245802       -0.46052230741707
C           49.90282035114957        0.32724963971440       -0.55456183653952
C           52.46775331108547        0.26089210289957       -0.37802398034735
C           53.68777073467253        0.23041197295993       -0.32597311979382
Ni          45.10549522872400        0.39663353141086       -0.94291299072352
C           41.70157825599813        0.28396728101410       -0.79454738675513
C           42.37794472579002       -0.74672333720720       -1.45540964360606
C           41.71587901118644       -1.80820886411499       -2.14382629163038
C           42.68492970283148       -2.61919630298744       -2.63383320236947
C           43.93634953028280       -2.07019402710514       -2.20819593650690
N           43.73514061038362       -0.89186674779159       -1.52413756378104
C           45.16104446904087       -2.70465512282445       -2.36429417845233
C           45.21210308245379       -4.02051127692584       -3.04557273490766
C           44.52711426266639       -5.11948770250269       -2.53625569875777
C           44.59231651642231       -6.35341680247692       -3.18268245552030
C           43.84591302478827       -7.49050360681025       -2.58708535063583
O           43.98292918541232       -8.63681816312523       -3.26885227906358
O           43.17563626620699       -7.41531411608285       -1.58940468320874
C           45.34327686146020       -6.49348592746695       -4.34954399164708
C           46.02667177804182       -5.40006697960401       -4.85821338037585
C           45.96628554655943       -4.17396541009722       -4.21156567592722
C           46.34838634370465       -2.17822314222755       -1.86990781954008
C           47.58947840091306       -2.88986904823195       -1.84783017195767
C           48.51470373345133       -2.04721656397054       -1.32710855590435
N           46.50789080163306       -0.91745529066750       -1.34511558570819
C           47.84051125326381       -0.81885351161963       -1.05121328503710
C           48.50450095644496        0.35608869464439       -0.68607824640273
C           47.83475050162030        1.57323212180784       -0.52330660771159
C           48.50286096963116        2.82027890027120       -0.33159326400484
C           47.53782767071095        3.76014940087833       -0.18083091724211
C           46.28212439974053        3.07592554457712       -0.24261829173957
N           46.47815636571074        1.73771853767744       -0.50238031551548
C           45.05669478822674        3.66486187533968        0.03886474390924
C           45.01624916630949        5.10113479954147        0.40466019515986
C           44.28152777498448        6.00007428260486       -0.37188446994064
C           44.23769717748072        7.34751419092442       -0.04238520130281
C           44.92163144524709        7.81308450549253        1.06816087195191
C           45.65391302347309        6.92344621255530        1.85569116649628
C           46.36906306407122        7.46131190134468        3.04059015428718
O           47.04851605190620        6.53055067288863        3.72575453454682
O           46.35648292423041        8.61875826379647        3.37305707601645
C           45.70062294645259        5.57100914541835        1.52341175981479
C           43.86244894432312        2.95390179716214        0.03410599863793
C           42.61491600008317        3.48428954987534        0.49190398088660
C           41.68474667102671        2.51671780396104        0.30215222145636
C           42.36293407094984        1.40615629435613       -0.28611113429816
N           43.70121043137581        1.66249655760984       -0.41021722726211
H           40.64635766128377       -1.90085921298653       -2.24225211090054
H           42.57067040768636       -3.51424025462205       -3.22306213455006
H           43.95099181940221       -5.03403685775390       -1.62143809935009
H           43.46921597356968       -9.32677817025087       -2.81828652564994
H           45.39056164212740       -7.45247622576618       -4.85103949944046
H           46.61194562014158       -5.50145802679272       -5.76512633287189
H           46.49786360933811       -3.32030222802530       -4.61704256256998
H           47.72243519673516       -3.90820915354022       -2.17493875069124
H           49.56438595755102       -2.22237337080020       -1.15498547593001
H           49.57342043745608        2.94737127724010       -0.32793040634829
H           47.65791220135677        4.82102355556012       -0.03408997631331
H           43.75331199092764        5.63790118474989       -1.24683159614649
H           43.66753001758074        8.03429825654466       -0.65750238409411
H           44.89805953774737        8.86225080899148        1.34033076374346
H           47.48332204729277        6.95936555005018        4.48074157135932
H           46.25623835321351        4.88027514425522        2.14652227986621
H           42.48056138660403        4.46548210779140        0.91723659433915
H           40.62968135214604        2.54375575514680        0.52186033303427
