380
 energy: -629.866061424776 gnorm: 0.000785737226 xtb: 6.5.1 (b24c23e)
C           62.23942409792667        0.03166478382042        0.07023535826444
C           62.84347796100922        1.21264930017262        0.48143395707442
C           62.18569304046082        2.39420390903546        0.92521886488501
C           63.14311165363999        3.32050440517392        1.22960380943704
C           64.41736520998356        2.73848308790025        0.97296410017472
N           64.18520643824662        1.46561183667346        0.53296066650973
C           65.67691696952167        3.32096834716681        1.15063875113458
C           65.70466517618887        4.72988984699808        1.61471162121878
C           65.15847490945052        5.71926966613093        0.89189754121989
C           65.15981594289515        7.15451031211063        1.35018661324905
N           66.11682473601340        7.36334499907905        2.43995017366630
C           66.49871978260306        6.32300518477070        3.24566697856955
C           66.35502814807286        5.03671984222913        2.88039004635284
C           66.89449767105016        2.67456433041583        0.92281826464844
C           68.18976902065812        3.31268706700549        1.07397893353695
C           69.11416139055093        2.38222116421499        0.75864074831279
N           67.05346203962662        1.38744238677977        0.50937711212363
C           68.38241806245377        1.18020162851862        0.40747418826166
C           69.02305631171507       -0.01368225452967        0.02177290925818
C           68.39362117355121       -1.21025845966070       -0.36922262313328
C           69.04440607140980       -2.41725935995528       -0.73875099622781
C           68.08194250397887       -3.33600722520179       -1.05376215711502
C           66.81248300725291       -2.71536640798492       -0.89246646713220
N           67.05306899651229       -1.43335870560475       -0.47281592370281
C           65.55405507113251       -3.29480934211999       -1.08786712760038
C           65.53580574391884       -4.70145664457689       -1.55645175041469
C           64.97329865008741       -5.67866769301045       -0.82971820280467
C           64.93384818297281       -7.11163895574094       -1.29275259994457
N           65.88769575785096       -7.34386073623713       -2.38078257391309
C           66.28373678111653       -6.31284938787924       -3.19231276814992
C           66.16934413558710       -5.02353679092740       -2.82764291679928
C           64.33502305009591       -2.64384491863627       -0.87187244970869
C           63.03207768274054       -3.23663537540841       -1.12957116400299
C           62.11518786680683       -2.30495221614622       -0.79824686493161
C           62.85670503296783       -1.13932590572646       -0.35115614530421
N           64.18943711988906       -1.37649791934361       -0.41595665818505
H           61.15398173027563        0.03386177375762        0.07939974815502
H           61.11580638103593        2.50578954314746        1.00260528751112
H           62.98730128015303        4.31791758751242        1.60752747544789
H           64.91433872046493        0.80557764295444        0.28396844275075
H           64.67577164231591        5.53160703199101       -0.06023478820523
H           64.14503346540783        7.45241035362537        1.67467443857847
H           65.44114795756819        7.81635029113215        0.51968649765156
H           66.04283899780057        8.26826812330349        2.88151004412541
H           66.99979482993309        6.61835916103301        4.16200055493698
H           66.70750298727599        4.23009211576879        3.50723531130242
H           68.34732163057626        4.33632157886488        1.37309108252151
H           70.18835497739549        2.47613672375045        0.74958045034075
H           70.11341879707777       -2.55630176386806       -0.75368503930211
H           68.23379425979957       -4.35663131672230       -1.36524103491288
H           66.32750427855272       -0.75642654698167       -0.26084662761755
H           64.50430912712389       -5.48072331491348        0.12700490576962
H           63.91181106879360       -7.37910302495503       -1.62063020327766
H           65.19467600801242       -7.78390286961881       -0.46417655076470
H           65.79135891018888       -8.24711733272791       -2.82172668570857
H           66.77214864466471       -6.61956544729630       -4.11178661363464
H           66.53092483896017       -4.22521612563416       -3.46013117819886
H           62.86649676526423       -4.22654636432783       -1.52335024679458
H           61.03929810848177       -2.36744677397229       -0.85010048487825
C          149.15062148005757       -0.03622571139540       -0.12914747152672
C          148.54544547738797       -1.25941681912889       -0.38657564219962
C          149.20246078872526       -2.49738080747176       -0.63456496883162
C          148.24392497014190       -3.45142151012579       -0.83032512964103
C          146.96948981269506       -2.82501579208357       -0.72171497893258
N          147.20307304235848       -1.50723603573191       -0.44475790276391
C          145.70871018070110       -3.41747367081323       -0.85019382745196
C          145.67647028722581       -4.86625068663631       -1.16821672467306
C          146.20803297382577       -5.35325456655267       -2.29946919389774
C          146.20378655925603       -6.82315707043256       -2.63043857128729
N          145.26161800536531       -7.55707204070153       -1.78136828133172
C          144.89347937747453       -7.06666820888012       -0.55614892926871
C          145.03832905938606       -5.77170444022885       -0.22368195573552
C          144.49247658023427       -2.74585909342323       -0.70152881357692
C          143.19623562888694       -3.36830382345532       -0.90186879151120
C          142.27326955856796       -2.40780835168853       -0.68896179888345
N          144.33551691156219       -1.43157758436363       -0.38448310207022
C          143.00674021236225       -1.20022103866698       -0.36122471841381
C          142.36813165285474        0.01703838291012       -0.05350787588109
C          142.99967917279014        1.23415839220183        0.26421408444252
C          142.35081693185458        2.44743311068062        0.61609140608978
C          143.31454876316792        3.38894992226290        0.84944463200350
C          144.58285566127796        2.78153005752761        0.63693664840823
N          144.34033179013386        1.47790855450628        0.29120331575649
C          145.84250654766618        3.37498402505971        0.77399344973148
C          145.86575804517813        4.80616835630793        1.16055804475748
C          146.45109717301875        5.21641229697047        2.29585487145654
C          146.49450117228736        6.66484676316849        2.70720256977834
N          145.52225002856045        7.45961702200370        1.95184725730526
C          145.10288249482531        7.05298549694083        0.71202373281758
C          145.21261487363327        5.77893545975885        0.29569384521846
C          147.05971414666951        2.71503830207872        0.57472890322990
C          148.36216918899703        3.35804952722434        0.64978178290706
C          149.27714406608172        2.40064008802823        0.39531918300778
C          148.53483174352937        1.17572167206355        0.15681601253407
N          147.20326152535148        1.40445705819764        0.26356589406581
H          150.23591512864928       -0.03807786426671       -0.14953071377079
H          150.27276069691180       -2.62896609796636       -0.64992685829589
H          148.39945680132377       -4.50008877665176       -1.02531643679436
H          146.47428748521011       -0.81666824915279       -0.29886685588134
H          146.68092324642305       -4.70941892427224       -3.03200601467650
H          147.22126434060166       -7.24233162953996       -2.51724987875837
H          145.90639726307231       -6.97431894787232       -3.67718981030570
H          145.33862414761577       -8.56086042800513       -1.85756763907264
H          144.40214394319264       -7.78547379608359        0.09183880578405
H          144.69592541823638       -5.39256239622102        0.72860524187045
H          143.03768321131218       -4.39817838340652       -1.17823810137175
H          141.19893803827586       -2.48180963669928       -0.74500960741849
H          141.28219864506940        2.57199881497304        0.68588502379461
H          143.16388607904588        4.41390015490479        1.14693400499477
H          145.06508464275737        0.79512988487802        0.09573712268468
H          146.93582468025031        4.52114776042180        2.97122240607954
H          147.51242243511581        7.07296464115034        2.56277356516632
H          146.25502774317275        6.76164561842637        3.77482807028821
H          145.61739859359315        8.45583478640061        2.08628286984315
H          144.60069256479690        7.81790939081357        0.12827343290559
H          144.83363094718860        5.46674215377156       -0.66711402961087
H          148.52836038296081        4.40336780238135        0.85501892325197
H          150.35209083267520        2.48599543869219        0.35863664508800
C           74.22743164696745       -0.05128543539790        0.03265715240180
C           72.99958084906733       -0.04651946849994        0.02831796470687
C           71.65395522658274       -0.03938506001236        0.02529679274956
C           70.43058949970018       -0.02501503386514        0.02220550328714
C           75.57291072036800       -0.05552883486010        0.03550906430051
C           76.79654502914721       -0.05315669701706        0.03215595167773
C           90.26727975165109       -0.00742068754319        0.01417876718190
C           89.03819661670366       -0.00700597924383        0.01850304742536
C           87.69492032171422       -0.00812395618691        0.02123464924404
C           86.47025205767899       -0.00879419403964        0.02605426548437
C           91.61051761993824       -0.00993552926639        0.01064874285728
C           92.83521789690791       -0.01083166676483        0.00465508121503
C          106.30815123373888        0.02625882605518        0.00862312616311
C          105.07906171592769        0.04014554203584        0.00878380460801
C          103.73592558046643        0.05143084579611        0.00938355331785
C          102.51115940748731        0.05698940354769        0.01278035300499
C          107.65123032982821        0.00921639213405        0.00765184958889
C          108.87593452143440       -0.00393472058280        0.00158990257380
C          122.34892908715491        0.03545155884634        0.00093329527243
C          121.11999941914100        0.05431993324019        0.00709606940620
C          119.77678689404156        0.06642979673143        0.01277966478018
C          118.55209298149074        0.07355678111688        0.02201119821256
C          123.69215783647064        0.02271185646343       -0.00707145546567
C          124.91673043845130        0.00965313852316       -0.01856752872289
C          138.39156921076733        0.06078697388779       -0.05459153792834
C          137.16373840353893        0.06800740346367       -0.05588644915864
C          135.81822503086616        0.07626683384709       -0.05282381376683
C          134.59457728590743        0.07578482934664       -0.04939235586077
C          139.73722362541642        0.04954351946147       -0.05194079215395
C          140.96055195428306        0.03093701855546       -0.05304046763750
C           78.20299855374905       -0.05842812389890        0.03107376310524
C           78.82901791582206       -0.26595134694315        1.27484729440648
C           78.18011536294203       -0.44430684901667        2.52408202538174
C           79.14551121035790       -0.59188335696177        3.48225512445143
C           80.41309093410128       -0.51650931443512        2.84348194827404
N           80.17055241354792       -0.31466443729916        1.51070016178278
C           81.67235920634251       -0.60092510488462        3.44869411474512
C           81.69091416955617       -0.84576754993896        4.91258480462579
C           81.19041178973239       -1.97138289274338        5.44378792327701
C           81.24859085909682       -2.26301298473862        6.92023672178507
N           81.52283998995975       -1.04669827302678        7.68998883408430
C           82.17654840877896        0.01190327935646        7.11529150054617
C           82.26388708083421        0.17043970390022        5.78274680305025
C           82.89726467089255       -0.47607990647496        2.79193291184593
C           84.18277777096780       -0.62646333380836        3.44936205187736
C           85.12253708235325       -0.45965783726498        2.49565250077396
N           83.07727195421502       -0.23419880719812        1.46367746727861
C           84.40924612406982       -0.21461226114121        1.25776044323267
C           85.06640023415603       -0.00412473836614        0.02815426561335
C           84.43929501464488        0.20002420840744       -1.21673569424746
C           85.08797871954066        0.37218462003548       -2.46671392918921
C           84.12239274936996        0.51672729719291       -3.42532747620448
C           82.85507136423348        0.44562866013179       -2.78578400394851
N           83.09814030356240        0.24908152642541       -1.45194038294714
C           81.59595416676432        0.53027720368421       -3.39034855343151
C           81.57617431504981        0.76625495863050       -4.85563539067347
C           82.07541335048100        1.88825039662020       -5.39546849956590
C           82.01654749460987        2.16863050414642       -6.87413277882579
N           81.74065996704944        0.94677994128045       -7.63431810013298
C           81.08891175782303       -0.10820376917236       -7.05133404262383
C           81.00298915796431       -0.25683879615832       -5.71752741614270
C           80.37092063441244        0.41063756684958       -2.73201129512249
C           79.08549271771044        0.56439175546425       -3.38924387320344
C           78.14568398417774        0.40035329277234       -2.43529777378088
C           78.85864836123727        0.15299096872462       -1.19754116717269
N           80.19151852074833        0.16986696517248       -1.40445116383553
H           77.11111080027291       -0.44984037084103        2.66358526528666
H           78.99649438742205       -0.73104797958419        4.54053716469250
H           80.89114016630977       -0.20877596986607        0.80441655430778
H           80.78568389347485       -2.76361416789364        4.82466266676039
H           82.02113080803505       -3.02690593479917        7.12880930547626
H           80.28827207042077       -2.67211938928953        7.26245074282464
H           81.72039265348565       -1.21736511771224        8.66547279344361
H           82.54255109267832        0.75420496266772        7.81742411747374
H           82.71532707664474        1.05118075993558        5.34880557941847
H           84.32426927394201       -0.84367425511791        4.49589448001286
H           86.19573740042972       -0.50055298702307        2.59255936373314
H           86.15692097159598        0.37549120563867       -2.60675879981752
H           84.27106709260704        0.65113064140329       -4.48427748215445
H           82.37787614527312        0.14641544715827       -0.74484994361313
H           82.48006013023668        2.68537801268704       -4.78262139950157
H           81.24474281268954        2.93171618500082       -7.08823403949865
H           82.97717291513035        2.57414084227013       -7.21993240895122
H           81.54427220903919        1.10898857664090       -8.61140414621137
H           80.72276185367420       -0.85598155547497       -7.74753789028362
H           80.55239382345850       -1.13440563447841       -5.27636466961295
H           78.94461322966777        0.78216476599260       -4.43574524444725
H           77.07257695347666        0.44458537030206       -2.53164802819020
C           94.23889039211890       -0.01539236492856        0.00408238119048
C           94.86539077475241       -0.23033597029516        1.24772424963165
C           94.21635053680879       -0.42096258262691        2.49456164141264
C           95.18190701214061       -0.57324367201925        3.45230537557915
C           96.44920519201121       -0.48734281051181        2.81510266824110
N           96.20658763913508       -0.27615647723749        1.48355428043189
C           97.70828170127429       -0.56937678715787        3.42118756029619
C           97.72543530898761       -0.82283692353978        4.88373560488244
C           97.23710124582782       -1.95732022222482        5.40713443125146
C           97.29426919206314       -2.25554439876846        6.88236153234520
N           97.54649928527465       -1.03866127503271        7.65841023453250
C           98.18948189565965        0.03098035868283        7.09231574679291
C           98.28227143663031        0.19622868980914        5.76092346935417
C           98.93380834859757       -0.43327934585885        2.76834622404967
C          100.21825257163623       -0.58002764975021        3.42850886803492
C          101.15970287711460       -0.40349818572648        2.47819121148135
N           99.11608846669148       -0.18287951463994        1.44184634793233
C          100.44845519353829       -0.15583954915100        1.23972565703074
C          101.10753501542607        0.06260093386682        0.01242236085255
C          100.48121873620229        0.27107604025044       -1.23241906808360
C          101.13038747765218        0.45188642197202       -2.48067777223116
C          100.16496827806266        0.59395218508366       -3.44011201130196
C           98.89750057884659        0.51284783439776       -2.80252625374764
N           99.14004225943373        0.31386486121836       -1.46899436115751
C           97.63844751047614        0.59056048120590       -3.40907504055032
C           97.62033114941111        0.82724351294480       -4.87437335605853
C           98.11198660764065        1.95338365942314       -5.41250444763060
C           98.05297845916576        2.23322007827578       -6.89130549051854
N           97.79938975689451        1.00665418568539       -7.65127678201585
C           97.15225802065214       -0.05323449698864       -7.07165104112659
C           97.05871369200916       -0.20063922627222       -5.73821760577584
C           96.41274468594617        0.46418280995878       -2.75428351716527
C           95.12854137810014        0.61293122893790       -3.41451174340804
C           94.18691271573647        0.44691863450254       -2.46243731569592
C           94.89780341486932        0.20158185777023       -1.22338124416747
N           96.23030489055031        0.22263929674437       -1.42635004086770
H           93.14731312992505       -0.43176162196311        2.63340981121934
H           95.03281105183322       -0.72238204123548        4.50921605953906
H           96.92678050887486       -0.16173643182806        0.77818698858726
H           96.84377396791699       -2.75096331466897        4.78252295718901
H           98.07779694718056       -3.00838510292109        7.09033679731813
H           96.33909735480813       -2.68105274427107        7.21886778673775
H           97.73766378696122       -1.20920576762873        8.63512416774519
H           98.54168798215780        0.77493030035136        7.79970275204847
H           98.72512013228524        1.08418049340731        5.33289621000041
H          100.35781924204628       -0.80150443730366        4.47440802192208
H          102.23284015790139       -0.43906850025215        2.57781061024410
H          102.19945118345984        0.46256095886153       -2.61936947256974
H          100.31432739303625        0.73308617354807       -4.49835091188420
H           98.41968280801821        0.20388829171032       -0.76309877902402
H           98.50909263435946        2.75334962930637       -4.79846277784355
H           97.26936834434564        2.98368274036946       -7.10762808199445
H           99.00780478645599        2.65403750894450       -7.23447581925383
H           97.61063994316324        1.16400720014283       -8.63067015703470
H           96.79750177183435       -0.80508331252891       -7.76934020976032
H           96.61223315176517       -1.08111263082446       -5.29865638851059
H           94.98932892960828        0.82894205233874       -4.46160661019579
H           93.11387443369054        0.48727408163748       -2.56139586729039
C          110.27948642825254       -0.01775995825886        0.00173361628870
C          110.90461030371426       -0.23751872408311        1.24525283328772
C          110.25459070901408       -0.43589082160199        2.49037669883472
C          111.21941345675351       -0.59388750036978        3.44794980581348
C          112.48723512480254       -0.50246057568792        2.81252633433143
N          112.24562109031135       -0.28410377015015        1.48194119520856
C          113.74555287893544       -0.58346197591132        3.42017234467324
C          113.76068722330577       -0.84973691530325        4.88057701722410
C          113.28106083113967       -1.99393302785701        5.39070840465584
C          113.33785054420022       -2.30694091621337        6.86286497425976
N          113.57168401997190       -1.09467538531996        7.65163509031130
C          114.20687940594789       -0.01327663128020        7.09922579006677
C          114.30468409096342        0.16565019099624        5.76989954775251
C          114.97174827341067       -0.43657678579108        2.77093072380617
C          116.25561418517083       -0.57681373019581        3.43365280615654
C          117.19805389042034       -0.39165285663155        2.48594914476352
N          115.15538185791908       -0.18075296445301        1.44570810763926
C          116.48805485819017       -0.14545679476778        1.24647981374007
C          117.14836462421457        0.07696280023987        0.02063975690406
C          116.52351530890778        0.28399266287752       -1.22516105303055
C          117.17430232054519        0.46880899158813       -2.47202020286853
C          116.21016548854968        0.60280228273572       -3.43388284903197
C          114.94184584827572        0.51285420239672       -2.79923375774794
N          115.18262370665394        0.31808737497274       -1.46477085225031
C          113.68357487233146        0.57871815799734       -3.40872805799059
C          113.66643874057434        0.80264700266346       -4.87610812303847
C          114.14858507934728        1.92757509445970       -5.42505981808579
C          114.08926868739280        2.19001906620639       -6.90710771145676
N          113.85899465723843        0.95054817323213       -7.65357177628882
C          113.21751484520541       -0.10826856258002       -7.06502567284823
C          113.11741122466844       -0.23999947321240       -5.73052235158108
C          112.45733716283421        0.44992042944321       -2.75558386324488
C          111.17404070863529        0.59140190488225       -3.41914597029977
C          110.23105992515703        0.43116690766925       -2.46743298264887
C          110.94022153345325        0.19445556095271       -1.22567618286127
N          112.27297735371297        0.21569134430146       -1.42656231760215
H          109.18543474557541       -0.44874829383612        2.62815223984649
H          111.06962112625307       -0.75008509366163        4.50375004170163
H          112.96634326248657       -0.16491862744321        0.77790316713437
H          112.89632858094537       -2.78427121640071        4.75664232115714
H          114.13079922251430       -3.05142793936249        7.06537301639667
H          112.38752650203452       -2.74842194781354        7.19224523915243
H          113.75823848185000       -1.27196867692230        8.62803279721789
H          114.54796505872316        0.72733388713436        7.81551063654939
H          114.74093685870642        1.06194172904987        5.35262894658370
H          116.39416782493750       -0.79947518572444        4.47943571794863
H          118.27119631394751       -0.42018159698105        2.58786376555503
H          118.24357530972986        0.48764973123720       -2.60817804955818
H          116.36106019834403        0.74258889965833       -4.49181848665571
H          114.46148294398137        0.20287521819631       -0.76050576934427
H          114.53678470838138        2.73794945929599       -4.81905875533769
H          113.29357906537706        2.92448074428399       -7.13416666502748
H          115.03777638302535        2.62279212691588       -7.25250569406661
H          113.67361293556969        1.09428925709069       -8.63576895393665
H          112.87443684553841       -0.87214548272238       -7.75544307840614
H          112.67613963726535       -1.11883688235734       -5.28246960768949
H          111.03653668482082        0.79973355095882       -4.46802809711702
H          109.15812988551697        0.46890455084469       -2.56853165210399
C          126.32051025848469       -0.00344094689352       -0.02556434555256
C          126.95174743237278       -0.21400881435694        1.21614982895391
C          126.30804946916338       -0.39627870949640        2.46725929496204
C          127.27752240682022       -0.54466587176315        3.42134516832525
C          128.54235973221788       -0.46442752185762        2.77789846159457
N          128.29392893966642       -0.26122222322832        1.44610760564742
C          129.80342734904789       -0.54412999240706        3.37885414951013
C          129.82686207051103       -0.78581736828824        4.84338524282825
C          129.34487827513564       -1.91741238102911        5.37857228114331
C          129.40713900767472       -2.20074800545923        6.85658247906948
N          129.65101763538476       -0.97398833997096        7.61961824701182
C          130.28928886009564        0.09258575654786        7.04251092797777
C          130.38115008673512        0.24413631974458        5.70941849196163
C          131.02660748192937       -0.41251978594583        2.71967207043913
C          132.31366638941103       -0.55714783984903        3.37584629175518
C          133.25151019167208       -0.38395197495859        2.42158437750227
N          131.20314660867314       -0.16701836668459        1.39263382567295
C          132.53572165802430       -0.13986997846226        1.18479348734708
C          133.18810446131116        0.07744374010084       -0.04451715285107
C          132.55768984653903        0.28355939155465       -1.28631084659439
C          133.20202701778439        0.46644677357444       -2.53725317985592
C          132.23306859159132        0.60750927321614       -3.49279373794016
C          130.96772329166754        0.52358442124646       -2.85060399228718
N          131.21521648325123        0.32384146503062       -1.51841933779259
C          129.70653560990854        0.59967157357593       -3.45276922586269
C          129.68363917492445        0.84233238366038       -4.91707537207326
C          130.17206443740872        1.97206551484017       -5.45062233528108
C          130.10892043200357        2.25937572601452       -6.92773520175811
N          129.85750728675941        1.03584058792712       -7.69366049893601
C          129.21236005800270       -0.02764637096403       -7.11780364119229
C          129.12174367835254       -0.18196119746860       -5.78500252600067
C          128.48345939687161        0.46946177596169       -2.79381813355013
C          127.19645598173452        0.61462643451416       -3.44954541234525
C          126.25872244829448        0.44867685857062       -2.49370073804792
C          126.97472463311588        0.20726709523769       -1.25667894456430
N          128.30631838772530        0.22907862279680       -1.46494612762822
H          125.23962605882056       -0.40428135207070        2.61102650892139
H          127.13330707259553       -0.68737788011540        4.47983200799877
H          129.01093900941729       -0.15107036883882        0.73685310219966
H          128.95293676802163       -2.71840537499670        4.76256353006981
H          130.19691983617278       -2.94528147220759        7.07079560826581
H          128.45588224227399       -2.63011878764792        7.19910874798219
H          129.84150533204428       -1.13267483619728        8.59845929916541
H          130.63804001392492        0.84560967490006        7.74196495492103
H          130.82042917849910        1.12914041811390        5.27172224767692
H          132.45659672409840       -0.77504726250337        4.42205792827866
H          134.32501923427347       -0.41953513666375        2.51706827390224
H          134.27059656769805        0.47925972402944       -2.67958723372628
H          132.37817069613618        0.74771397753043       -4.55148609734032
H          130.49748330388255        0.21278782796738       -0.81003299074233
H          130.56933267097199        2.76946059100350       -4.83333343589488
H          129.32244338137215        3.00838941124243       -7.13849014391192
H          131.06162644864702        2.68485945200161       -7.27087853356825
H          129.66317054622405        1.19946647036097       -8.67101508410215
H          128.85736085117139       -0.77653298353713       -7.81856447147410
H          128.67754452432567       -1.06538024519753       -5.34902236416749
H          127.05291968155552        0.82833698814426       -4.49652323264707
H          125.18524840915957        0.48663065271372       -2.58878815069562
