138
 energy: -217.123963890911 gnorm: 0.000385945810 xtb: 6.5.1 (b24c23e)
Fe          16.79274033559033        0.16787074294777       -0.22741294073700
C           13.45017876382995        0.35892667258728       -0.70331278727627
C           14.10326946814098        1.49356868143343       -0.26732557235993
C           13.43592704235688        2.72894234680130        0.01345343697790
C           14.36277165839483        3.55668601768061        0.55078160824379
C           15.60328899988887        2.83664603365340        0.56620913665585
N           15.42934862232734        1.57389024427607        0.06876401603204
C           16.80122456019382        3.35724596814034        1.04419743293313
C           18.00295411462517        2.66699568894489        0.97300460409069
C           19.26830220668719        3.24104843258803        1.32204666103137
C           20.21635666967743        2.34070573940229        0.96777278340975
N           18.17998819169153        1.41100061163326        0.44299307120128
C           19.52891010781030        1.21172693360672        0.42413030552307
C           20.18569501466893        0.07682614313564       -0.06677929374919
C           19.50673655499030       -1.06809145096310       -0.49976051054646
C           20.17137873050799       -2.27520754752753       -0.87950836377855
C           19.20603746898596       -3.20297639748781       -1.08650959489386
C           17.95165591139222       -2.55357072627451       -0.84942980251101
C           16.72004657328631       -3.17542141629911       -1.00721843879143
C           16.70169025553540       -4.62546204298676       -1.31549536026049
C           16.19379706647689       -5.08839754503289       -2.52718790078657
C           16.18726538935183       -6.45016585476824       -2.81613446805625
C           15.62594537024469       -6.93741483137138       -4.12473437402555
C           16.68872176376167       -7.34770779474164       -1.88028999127876
C           17.20051981880243       -6.89984611035357       -0.66439326251144
C           17.75572527824390       -7.88505055198961        0.32836074523401
C           17.20815792182540       -5.53800668452947       -0.38946779219069
C           15.51566732492312       -2.48431061658861       -0.93953465062296
C           14.23281753446778       -3.07820375558083       -1.18350377128037
C           13.32495737523757       -2.07416097803450       -1.15433515689107
C           14.04839263646703       -0.87572526447704       -0.85379400706060
N           15.38317680082297       -1.14252489481709       -0.70065662336934
N           18.15326540531679       -1.24109175138851       -0.49958953060724
C           16.80944976764334        4.73229508638679        1.60063366561653
C           16.51324248723965        5.82329736603641        0.78521105030670
C           16.52153821691170        7.11409363602141        1.30309848069284
C           16.22460128682695        8.28985748330742        0.41208128373377
C           16.82785785188824        7.30748626733025        2.64670568077108
C           17.12848064024059        6.22814752391312        3.47231691157607
C           17.43736898353927        6.44752268729313        4.92865442069683
C           17.12012064165419        4.94199858748575        2.94305835749517
H           12.38395525062608        0.42936332733127       -0.88782397140514
H           12.38790348993225        2.91219888850868       -0.16330791134541
H           14.22913281850747        4.56379774547094        0.91087300760309
H           19.40425578968501        4.21870062216079        1.75492287338998
H           21.28721858385013        2.42302319958065        1.05829256837460
H           21.24016859959034       -2.39071242599071       -0.95716194444361
H           19.32160845203109       -4.23067429701600       -1.39004793494750
H           15.82046514047190       -4.37844092066026       -3.25706383208391
H           15.94344780969504       -7.95971150120829       -4.32970849700792
H           14.53434403230360       -6.91688763196881       -4.09227719047357
H           15.95028631285681       -6.29614537097871       -4.94513970540740
H           16.68451652785851       -8.41060964591919       -2.09908731882982
H           17.88513806802617       -7.42274160549540        1.30677576599784
H           17.09176692021320       -8.74447266196984        0.42961017194955
H           18.72796795956451       -8.24858034973123       -0.01149738236028
H           17.59574950785577       -5.17554614619976        0.55629329297360
H           14.06170035229122       -4.12810775772099       -1.35742705607930
H           12.25791600548117       -2.12346219509626       -1.30336249032118
H           16.29176127348208        5.66106065169167       -0.26393938731316
H           15.77768781717658        9.10539065877266        0.98099885065136
H           15.54533972039984        8.00576827246472       -0.39192244012362
H           17.14953822817177        8.65686669348674       -0.03865311071359
H           16.83390371078701        8.31267904512267        3.05557156165130
H           16.51297064375227        6.42970729606977        5.51055111039676
H           17.91597365378240        7.41492465111351        5.08251199659274
H           18.09294144907116        5.66402111551826        5.30911054231964
H           17.34225178384994        4.09129226118230        3.57790175425445
Fe          27.60756088729607        0.17169938927054       -0.22455077924203
C           30.95016485440848        0.57543497715499       -0.54041069299114
C           30.29707349825100       -0.15914334623103       -1.50885894424789
C           30.96442113488335       -0.77273280034708       -2.61723050665531
C           30.03755418530641       -1.51916467676282       -3.26273691801956
C           28.79702266633565       -1.33348906795514       -2.56690290123836
N           28.97097409147912       -0.50423519399548       -1.49250159842273
C           27.59906911144964       -1.93743582483691       -2.93392134349160
C           26.39733538925080       -1.67688775066513       -2.29079120578610
C           25.13198408885148       -2.17189890227594       -2.74502200303164
C           24.18393107759408       -1.58102977543843       -1.97886200229755
N           26.22030255911969       -0.81824148275774       -1.23194256055982
C           24.87138002078872       -0.74464797561052       -1.04579937308544
C           24.21459239619641        0.04274283898432       -0.09238243975446
C           24.89354890228738        0.77729984498765        0.88676983130009
C           24.22890308932396        1.47804461048079        1.94047424590190
C           25.19424412003885        1.93514821001061        2.77393620250062
C           26.44862915929654        1.52668988073954        2.21618108795237
C           27.68023462580643        1.85136238423891        2.76952282677464
C           27.69859144481288        2.55110905479987        4.07643155262782
C           28.20646869680616        3.84378275648650        4.18375749004834
C           28.21301664335507        4.50038642926195        5.41126471221967
C           28.77432496983494        5.89290315523391        5.51496979930147
C           27.71159042818437        3.85137668568764        6.53385221067372
C           27.19980597699510        2.55886228875732        6.44217408987534
C           26.64463732968481        1.87960006780628        7.66480743393032
C           27.19215263543837        1.91570485594421        5.21069567610282
C           28.88461903057080        1.59394972152215        2.12458553228626
C           30.16746438050691        1.99358389622716        2.62711227392807
C           31.07534643546852        1.68600209089108        1.67091901419241
C           30.35192542031250        1.06371313786830        0.60351484805214
N           29.01712971892351        0.99095144160332        0.90235906301884
N           26.24701984300212        0.82531048452548        1.05296977453130
C           27.59083941286178       -2.85463141306196       -4.09974156809649
C           27.88708124066459       -2.37512783419173       -5.37459651102375
C           27.87877726911002       -3.23184425971616       -6.47022398103772
C           28.17574809059027       -2.70332911123884       -7.84753399146003
C           27.57241638845308       -4.57617296319599       -6.28198126624586
C           27.27176307354477       -5.06871007613871       -5.01549208203385
C           26.96283442062007       -6.52854847543599       -4.82083354235485
C           27.28013064998727       -4.20236556360537       -3.92749379107058
H           32.01640040947699        0.73299282099893       -0.65938488193031
H           32.01246032561489       -0.65402905272697       -2.84240643187594
H           30.17118512410804       -2.14535441540353       -4.12981738624535
H           24.99603025587761       -2.85977452136501       -3.56356483456948
H           23.11306861187920       -1.69087747960928       -2.03273502950979
H           23.16011170373066        1.58475561294051        2.02980986316989
H           25.07867291797022        2.51276688318673        3.67651877335080
H           28.57977911600696        4.34718113860126        3.29867927861309
H           28.45683860163242        6.37434545400748        6.43980945700451
H           29.86592637965024        5.85602497496774        5.50426470662018
H           28.44995905510559        6.50237051881467        4.67068048738934
H           27.71581065203631        4.35740589538642        7.49383483927606
H           26.51523318314121        0.81116190870092        7.49314645631177
H           27.30861524127264        2.02160619405882        8.51842709189683
H           25.67239617618789        2.30721189415148        7.91938241368956
H           26.80457293782862        0.90642215806513        5.12584548642537
H           30.33856459985459        2.45293215475227        3.58708751208190
H           32.14239232599693        1.84283017521877        1.67681495202895
H           28.10859597044571       -1.32228849623613       -5.51080276534112
H           28.62261581369929       -3.47679287187521       -8.47247894971235
H           28.85506050911516       -1.85206441408367       -7.79846466741775
H           27.25083133730154       -2.37250913933434       -8.32550111670106
H           27.56636412530417       -5.24867865225199       -7.13363837992534
H           27.88721719239449       -7.08251510620592       -4.64174980623226
H           26.48422492891755       -6.94558299684663       -5.70718375072447
H           26.30725223232227       -6.67587042526877       -3.96240192411523
H           27.05797291821100       -4.57531837000372       -2.93370197852406
C           21.59106025334671        0.06584867558703       -0.07494445515496
C           22.80922709152433        0.05363323591288       -0.08410641729430
