344
 energy: -639.005511144198 gnorm: 0.000442193349 xtb: 6.5.1 (b24c23e)
C           57.65812808516199       -0.05963949963029       -0.07739678539199
C           58.26619811241468       -1.29959707111263       -0.22478366477165
C           57.61367206993829       -2.55722284998420       -0.35963813354710
C           58.57549007720596       -3.51928391734177       -0.48715943413428
C           59.84690485435751       -2.87850927216759       -0.44584207974788
N           59.60952592136900       -1.54435924714839       -0.27615876701252
C           61.11054607835168       -3.47326339608993       -0.53700837780792
C           62.32711791817030       -2.79119863479881       -0.45448985443427
C           63.62352598603766       -3.42349739674715       -0.62304101399996
C           64.54516373869545       -2.44886823925045       -0.48126060444743
N           62.48277567393065       -1.45691810002606       -0.23458101632575
C           63.81072684248411       -1.22301044381743       -0.23391678213450
C           64.44911566016471        0.01515765059484       -0.01836335995311
C           63.81384922192062        1.25278669984238        0.19728819582620
C           64.45839798999806        2.49127450740033        0.45673932391857
C           63.49208940746429        3.44742825028696        0.60243708363857
C           62.22635205623468        2.82268141870773        0.42423066684997
C           60.96407758085770        3.42241746759640        0.49324268084960
C           60.93249239070433        4.88397494840882        0.73293748585711
C           61.54445734369747        5.76412008935502       -0.16405986629216
C           61.51623108447598        7.12717532702372        0.06562396802455
C           60.87994168714309        7.63692441203986        1.19908164255775
C           60.88312440918427        9.10482435262341        1.40546045651409
O           60.24727563007652        9.49165793096944        2.52175259312223
O           61.40029611507776        9.89564954571818        0.65798672743618
C           60.26706788231007        6.76303841230233        2.09768381676686
C           60.29242718491565        5.39953136620678        1.86329041989617
C           59.74679127075568        2.74625969848645        0.35411160423491
C           58.44444117860250        3.39501791247542        0.36182676287359
C           57.53002967314907        2.41765271686514        0.20119748605212
C           58.27255690127075        1.17470673965029        0.08579109731291
N           59.60472593661771        1.41266847976377        0.17123644953651
N           62.47268060055893        1.49541048691523        0.19224154429539
C           61.14294413348004       -4.94123357291767       -0.74048868413494
C           60.56498258952469       -5.51186615682014       -1.87740415800319
C           60.59803456717582       -6.88174951974737       -2.07159194283748
C           61.20622827837163       -7.70598717237472       -1.12436288278123
C           61.26647004484592       -9.17849712383114       -1.28458654200531
O           60.69486972863099       -9.61940873337468       -2.41557477422158
O           61.77416679119149       -9.92902111112397       -0.49062661367025
C           61.78145664614493       -7.14057002139024        0.01535049917293
C           61.75254014104870       -5.77132507936479        0.20427320032625
H           56.57288881144402       -0.06597766333012       -0.09100287736443
H           56.54425992883591       -2.69510335592995       -0.35146112785652
H           58.42364171083079       -4.58125873782644       -0.59230469868920
H           60.33507037881646       -0.83980919524553       -0.19594274779464
H           63.78425306565932       -4.46775524520418       -0.83633926815178
H           65.61903435403829       -2.52433875001653       -0.54075905280171
H           65.52597706928644        2.62239292488510        0.52875315221073
H           63.64003562701485        4.49163271977845        0.82421921790697
H           62.02659181324580        5.37250082790355       -1.05260567516479
H           61.98517604778759        7.81543251795184       -0.62899563506181
H           60.29514920011142       10.45950223662786        2.58295631075497
H           59.77432726634070        7.15385315728092        2.98007512910935
H           59.82904892773841        4.72002836456324        2.56961018438039
H           58.27821611722932        4.45554046329841        0.46156400969700
H           56.45546407298849        2.49904761146732        0.15340116052682
H           61.75053669083767        0.79763601633252        0.04636552597727
H           60.10500123645748       -4.87098403158177       -2.62124158570106
H           60.15392330198297       -7.31571718048209       -2.95963040057840
H           60.77837118447184      -10.58633411662287       -2.44516697368183
H           62.24855371352498       -7.79073521107346        0.74692029538839
H           62.18955548745689       -5.33512692027151        1.09525374676183
C          138.81371549857667        0.10864147097310       -0.02764865169770
C          138.19786980471321        1.28311537942030        0.38502197109330
C          138.84240116362975        2.47407899601092        0.82309915626126
C          137.87463155336363        3.38925409403029        1.12765862967490
C          136.60739471110952        2.79048674790593        0.87382841181165
N          136.85313833873266        1.51933993031092        0.43911745376166
C          135.33996284045895        3.35915797778087        1.04391206346637
C          134.12819384064642        2.70455493712283        0.80824664355164
C          132.82813582860297        3.34193323993240        0.91982416217223
C          131.91295478591886        2.39839996551187        0.61708422275653
N          133.98131978067204        1.40680753506889        0.42501836716302
C          132.65503565037929        1.18966967966142        0.31463454625247
C          132.02462060660315       -0.02504679991714       -0.02303559901038
C          132.66777188473736       -1.23145931032906       -0.35846813056631
C          132.03149113615228       -2.46469243174398       -0.65978437726364
C          133.00380537481442       -3.38174188470916       -0.94781007090999
C          134.26497401390316       -2.73192376819690       -0.84156639028541
C          135.53083489408962       -3.29167434594880       -1.04702877512069
C          135.57103066806286       -4.70968281169001       -1.47375484735699
C          134.95601058954065       -5.11046450676196       -2.66328614597676
C          134.99128843717673       -6.43560605090923       -3.05593414090537
C          135.63782589043419       -7.38713522710203       -2.26471419449487
C          135.64127944883691       -8.79659570213856       -2.72379930805116
O          136.28720651721702       -9.63004487476934       -1.89427344914808
O          135.12070784872424       -9.18229665135412       -3.73959257141527
C          136.25399774794744       -6.99265506660394       -1.07665232628832
C          136.22156986999030       -5.66499421126357       -0.68805107574824
C          136.74346734355674       -2.61392279269559       -0.87850275924702
C          138.04972506203168       -3.19053701045710       -1.15820003783630
C          138.95765525856669       -2.23624379901468       -0.87151940958141
C          138.20719502855866       -1.07470626750565       -0.42731524449011
N          136.87681073677348       -1.33495354533016       -0.45572868733906
N          134.01018699166985       -1.43793083546132       -0.47191665384457
C          135.29627992105918        4.76563770075050        1.50966002596977
C          135.87870149451822        5.78372482760693        0.75040623321480
C          135.83389500562276        7.09768789897546        1.18285929214549
C          135.20910953170673        7.41403005158092        2.38953969406353
C          135.13501535067925        8.80480422003907        2.89736979473022
O          135.71239117035665        9.70418133157598        2.08628385452596
O          134.61232637643451        9.12303854579323        3.93516420675199
C          134.62940963169100        6.39937483869095        3.15372148987244
C          134.67021100283424        5.08839893006786        2.71687517483447
H          139.89890014096716        0.12628877511225       -0.03347016310754
H          139.91082903604874        2.59895810817773        0.89782018608907
H          138.01973350978352        4.38917366099722        1.50316999776675
H          136.13195561718868        0.84841945528738        0.19620851014891
H          132.66087196641581        4.37475560879379        1.17888277207354
H          130.83891484405629        2.48777738300822        0.58739871725509
H          130.96507939895244       -2.62202184208671       -0.64825634555038
H          132.86289481457990       -4.41963553631416       -1.20152104827362
H          134.46568030073399       -4.37162169346439       -3.28701944286375
H          134.51989864996096       -6.75191573957609       -3.97997336003522
H          136.24313569849639      -10.52682871911664       -2.26384030123542
H          136.75469418482066       -7.72803272242211       -0.45805097894069
H          136.68733135769645       -5.36176367621837        0.24277486357935
H          138.22269990246008       -4.18524272136985       -1.53626498618797
H          140.03254305010535       -2.28088712188511       -0.95039125129623
H          134.72772833682501       -0.74058962808475       -0.30306062708750
H          136.35126907766826        5.54119682078841       -0.19482176369870
H          136.28146699061301        7.88241117904375        0.58446617375271
H          135.61919836911215       10.58367119602150        2.48705235332334
H          134.14934239279950        6.65580766096206        4.09173165565957
H          134.22958201608984        4.30041985466980        3.31691637000136
C           65.85497801721567        0.02935611489807       -0.01305464559749
C           67.07956581600556        0.04250464086232       -0.01136754061136
C           68.42228464235319        0.05293373354144       -0.00715799458550
C           69.65297774804763        0.06141650297565       -0.00213164689413
C           70.99086736579049        0.06985772987094        0.00327226101939
C           72.22165891709851        0.07792725062348        0.00792964294578
C           73.56411165276594        0.08718209906323        0.01608818605127
C           74.78892560143164        0.09275104933025        0.02663393547886
C           84.46621370399205        0.14424961804299        0.10267489168839
C           85.69154490032609        0.14421407051160        0.10430457686333
C           87.03340192744254        0.14526141617852        0.10276022598126
C           88.26482285539427        0.14198699054168        0.10338439462075
C           89.60197254186149        0.13779617731135        0.10154480581033
C           90.83333262410959        0.12890672352363        0.09768066879260
C           92.17510525221834        0.11866685691659        0.09177602755772
C           93.40036338950512        0.10589341667337        0.08739359856851
C          103.07689522631422        0.06535607655217        0.10386379417749
C          104.30214396245609        0.07031766900693        0.11664031782386
C          105.64394950665981        0.07641820781338        0.12480558625720
C          106.87532536858292        0.07902100494167        0.13048311528689
C          108.21246325079451        0.08232612670906        0.13491669051959
C          109.44384286016050        0.08542398280665        0.13722905654569
C          110.78568856411195        0.08571574425655        0.13641867625313
C          112.01099270527746        0.08282268542871        0.13598258664976
C          121.68524635286055       -0.03535572030787        0.01714095263005
C          122.90989691486818       -0.05237381873121        0.00336154623444
C          124.25226565709393       -0.06495851116226       -0.01011512040972
C          125.48303511279894       -0.07416990858222       -0.01798904090768
C          126.82093459252171       -0.07707940015911       -0.02375189829883
C          128.05165694199184       -0.07393648852125       -0.02614945941768
C          129.39437832185487       -0.06438614988936       -0.02683105118772
C          130.61890331078274       -0.04782590837308       -0.02524911168698
C           76.19365228307812        0.10355893745518        0.03969161938185
C           76.82164391890039        1.04444033025212       -0.79912050471587
C           76.17513466495745        1.95631289272566       -1.67283378826640
C           77.14086300100017        2.70040459988383       -2.29355341413137
C           78.40575642557764        2.26905677647904       -1.80870367312294
N           78.16238067339454        1.26020513385850       -0.91601393482123
C           79.66584079654838        2.75571204032091       -2.17858082512175
C           80.89198217219901        2.27399362188240       -1.71745265482617
C           82.17532836024918        2.84707407853126       -2.08300480595783
C           83.11494125046781        2.11597805959315       -1.44877154182255
N           81.07255727140590        1.23071160339812       -0.86127740841558
C           82.40393361750904        1.10587818042729       -0.69006339672773
C           83.06220088304457        0.14028370568612        0.09878236038898
C           82.43434869490258       -0.83844814758817        0.89390866589488
C           83.08186931538268       -1.82941838013191        1.67599323029437
C           82.11591943247119       -2.56612489125239        2.30520032322534
C           80.84955393738218       -2.03951118417934        1.93090098075708
C           79.58919299021268       -2.49505079100227        2.33663645822400
C           79.57492302362374       -3.61605530047457        3.30775255331431
C           78.98853557476481       -4.83818688696475        2.96822099612842
C           78.97543878616013       -5.88168280875290        3.87521087412770
C           79.54352058705034       -5.72147989809085        5.14047960379295
C           79.50069457269758       -6.86782570689789        6.07992763231525
O           80.06847987373177       -6.60976007947176        7.26766977868246
O           79.00926094970235       -7.93776808667336        5.82517903957617
C           80.12878998803662       -4.50282472133948        5.48497122336620
C           80.14610018739562       -3.46159125063630        4.57341111829488
C           78.36226986915419       -1.98472182429090        1.90833085441726
C           77.07699401779631       -2.45023402737716        2.39893392724052
C           76.13765127518273       -1.72655043693564        1.75602080854938
C           76.85036622638233       -0.81462274383502        0.88327937237413
N           78.18295190447598       -0.98456467129415        1.00264319771226
N           81.09296863692754       -1.00336986433191        1.06956209919545
C           79.67743100682773        3.88160010464514       -3.14408634392514
C           79.07991196283353        5.10128931676181       -2.81526637888555
C           79.09116521550322        6.14946433117225       -3.71692636052584
C           79.69458328058306        5.99604549596799       -4.96652162908133
C           79.67601050431225        7.14723710158422       -5.90078148813598
O           80.28315100946830        6.89888883827482       -7.07086365753280
O           79.17033015697348        8.21301468806553       -5.65629448202623
C           80.29081491711433        4.77968344104308       -5.30042515840884
C           80.28325071279876        3.73368410684330       -4.39428859299938
H           75.10773435208193        2.02389136937473       -1.80743032623807
H           76.99206662212288        3.47346442711014       -3.02951691634976
H           78.88156456420808        0.74576656613500       -0.41865657317899
H           82.31579914562904        3.70071241596417       -2.72594011569599
H           84.18654433125799        2.23322213940185       -1.46859123698325
H           84.15021873370982       -1.95844631032476        1.73943899179057
H           82.26540565342962       -3.40663613505235        2.96297198239133
H           78.55685369691038       -4.96782445144058        1.98236708231429
H           78.52628483149610       -6.83432083368730        3.61671952423049
H           79.99831741556847       -7.40446289341614        7.82118010091585
H           80.56748375975515       -4.37266555869703        6.46718203658312
H           80.58895790668331       -2.51035419995038        4.84650860868749
H           76.93461978732350       -3.21617523055263        3.14376241233570
H           75.06496598987039       -1.77894157132337        1.85101873257643
H           80.37315640226834       -0.44473242894253        0.62341472306364
H           78.62198578229668        5.22683592770991       -1.84065562925568
H           78.63441007311091        7.10052587916027       -3.46600631435428
H           80.22810067877175        7.69681241279426       -7.62144092338148
H           80.75747942524376        4.65525589219650       -6.27040187872078
H           80.73563652835986        2.78450890156360       -4.65831658500144
C           94.80425053591632        0.09240080670429        0.07909789309581
C           95.43570050161813        1.00700872560235       -0.78665275943354
C           94.79182476992865        1.90533842452580       -1.67602364420572
C           95.76054903532336        2.61867248100181       -2.32767892395636
C           97.02476344947355        2.18383596472928       -1.84446850420322
N           96.77762194029830        1.20152133074037       -0.92327713354343
C           98.28748133404623        2.64817248426129       -2.23338209686049
C           99.51121922523453        2.17214046293950       -1.75931840832548
C          100.79646505999709        2.73723221025017       -2.13059297549614
C          101.73288755557024        2.01924293888487       -1.47689892853748
N           99.68746380867772        1.14525170847892       -0.88290736385672
C          101.01828023263396        1.02197330340256       -0.70489280755815
C          101.67298788224814        0.06090795343890        0.09223541610341
C          101.04139752591701       -0.92048083202595        0.88129705990052
C          101.68493816147785       -1.92550980540981        1.64827120330208
C          100.71606682880333       -2.66592795629995        2.26879851506690
C           99.45214291023692       -2.12503362844383        1.90721175703347
C           98.18953160654117       -2.57059839696944        2.31779525390588
C           98.16883186100790       -3.71164175265977        3.26499766976938
C           97.55610496231890       -4.91464981344693        2.90390983500850
C           97.54069762245211       -5.98155242679454        3.78305749828235
C           98.13288222582349       -5.86444176932083        5.04198330336056
C           98.08918441715522       -7.03570391881112        5.95011309806854
O           98.68696648382732       -6.82129649463716        7.13174790025425
O           97.57325976413500       -8.08934072615546        5.67641242106138
C           98.74246638254562       -4.66440244332697        5.40892471053770
C           98.76162243275378       -3.59945270012267        4.52513003851253
C           96.96585217090846       -2.03399978703986        1.91333506440506
C           95.68081223241897       -2.47694279262246        2.42471657701062
C           94.74450303463662       -1.72965364148337        1.80459320955778
C           95.45894969672773       -0.82974825578558        0.92088408842655
N           96.78968106630590       -1.02509016487402        1.01627575199933
N           99.69956332576564       -1.07920834843168        1.05885102839275
C           98.30857880180838        3.74108559176360       -3.23568385107904
C           97.71917933976920        4.97629064755340       -2.95381731946088
C           97.74286934716226        5.99114664854004       -3.89274409170156
C           98.35116155615847        5.78852719134766       -5.13291390557395
C           98.34768736189579        6.90575270099180       -6.10771019948192
O           98.96240185593963        6.61168118178558       -7.26312783033498
O           97.84739510623267        7.98286923148155       -5.90553376585756
C           98.93936166315977        4.55640834364621       -5.42002534505797
C           98.91909754747721        3.54393320280875       -4.47697310340415
H           93.72399125803321        1.98420532832261       -1.80067224570542
H           95.61363237320022        3.37357419378930       -3.08261414864187
H           97.49554888872670        0.68945353861183       -0.42163644332384
H          100.94000506353161        3.57873942443249       -2.78867576195872
H          102.80457643494242        2.13611066113474       -1.49370341358166
H          102.75261125770376       -2.06238459130650        1.70642303420787
H          100.86268368715498       -3.51720613593931        2.91319385366699
H           97.10623506175702       -5.01100170056731        1.92237794984640
H           97.07195270986045       -6.91971595767706        3.50703547164452
H           98.61495831375532       -7.63017711866975        7.66406694318808
H           99.19907686113862       -4.56740913192236        6.38679718942192
H           99.22352948378166       -2.66279658529247        4.81639967251523
H           95.53735683612162       -3.24400926619241        3.16822710874225
H           93.67295361175893       -1.76065098432819        1.91980905287698
H           98.98179293271416       -0.51096508397436        0.62159856688984
H           97.25861385943958        5.14106644305241       -1.98633690081800
H           97.29270356686511        6.95421089654604       -3.67835754446873
H           98.91764583966683        7.38975102963067       -7.84227466677500
H           99.40999644184022        4.39364417100696       -6.38236676602761
H           99.36575654818319        2.58258279889897       -4.70413568745573
C          113.41499540425754        0.07587698170741        0.12793828030020
C          114.04250848232233        1.00087892667228       -0.72935831198717
C          113.39440798166189        1.91778965353914       -1.59667977000053
C          114.35994216784914        2.64450718029375       -2.23795434179923
C          115.62669296277052        2.19705138630722       -1.77290906001504
N          115.38386222545020        1.19633116167727       -0.87050850935246
C          116.88710056007901        2.66333658284684       -2.16619482185374
C          118.11374317961292        2.16385190222044       -1.72432375164184
C          119.39929150375880        2.71889439655832       -2.10973708324024
C          120.33834228179130        1.97121831369093       -1.49426926584711
N          118.29252075096339        1.11561136302840       -0.87479573559277
C          119.62509082168785        0.96853924046354       -0.72808057956610
C          120.28078410725388       -0.01533541630678        0.03863012564124
C          119.65204871572294       -0.98951764123906        0.83795006270541
C          120.29753700067965       -2.00048094060421        1.59562141632003
C          119.33232613021792       -2.71817816252309        2.24752316771999
C          118.06897213090166       -2.15892406355716        1.91256077823660
C          116.80992460343495       -2.58293703547524        2.35609276044546
C          116.79944693253766       -3.70318769309779        3.32787329353366
C          116.17100538249078       -4.91013699051972        3.01006670986717
C          116.16919334494696       -5.95537832430874        3.91518207489047
C          116.79098211932714       -5.81217211527603        5.15700372744435
C          116.76238114010091       -6.96102475564114        6.09380053307905
O          117.38585048714563       -6.72044781951418        7.25708079736618
O          116.23769092107227       -8.01918981649810        5.85657112593361
C          117.41644168546010       -4.60785526032504        5.48081311786610
C          117.42190010258533       -3.56493805308056        4.57115914170898
C          115.58453992838432       -2.04287266150885        1.96231766827290
C          114.30242073543482       -2.47516938440193        2.48985917172132
C          113.36317623732967       -1.73509908828367        1.86554154911793
C          114.07335808905073       -0.84562353975348        0.96779392605770
N          115.40406372534085       -1.04339815880640        1.05536324186632
N          118.31233786397198       -1.12500274028503        1.04905403993179
C          116.90168368856972        3.78348329362195       -3.13805286238103
C          116.32646325769426        5.01411371998534       -2.81040063670145
C          116.34408297039722        6.05655118468101       -3.71867798263356
C          116.93146219294267        5.88645554877824       -4.97373562122259
C          116.92178833660604        7.03238289120968       -5.91454718138155
O          117.51222837400553        6.76717526562889       -7.08946967174820
O          116.43626705823289        8.10776366716501       -5.67120982298525
C          117.50482179815889        4.65889148774423       -5.30677149658070
C          117.49105235695646        3.61873975234725       -4.39414447755332
H          112.32592514224947        2.00079711543908       -1.71278138992563
H          114.20975472644697        3.41611323771142       -2.97517379726478
H          116.10407097402484        0.67311321157757       -0.38391748488987
H          119.54187585301926        3.57317016199881       -2.75135706192462
H          121.41113204636208        2.07204126189264       -1.53205348760897
H          121.36387615083314       -2.15506048368495        1.62825190226528
H          119.48048095924035       -3.56632793139850        2.89569132609510
H          115.69882651232443       -5.02757462611043        2.04141342599507
H          115.68863450275947       -6.89683615211098        3.67271261333151
H          117.32246508496146       -7.51592510307009        7.81027434293426
H          117.89654302953637       -4.49054302252470        6.44509460373496
H          117.89717636839111       -2.62496717212594        4.82830320699470
H          114.16253279670109       -3.23228098714430        3.24416807890940
H          112.29240795335093       -1.76238820373412        1.98870702261738
H          117.59372506189706       -0.54675560476168        0.62660405853211
H          115.88178411142870        5.15293872589328       -1.83147862799860
H          115.90522112525056        7.01620785325952       -3.46855164234858
H          117.46448569424574        7.56258504496695       -7.64432541392768
H          117.95898802219013        4.52141125605757       -6.28089921784955
H          117.92599150410412        2.66115238814631       -4.65712112339464
