308
 energy: -537.269956741010 gnorm: 0.000760597391 xtb: 6.5.1 (b24c23e)
C           64.50597310444476       -0.03168659794406       -0.13811898721599
C           65.11054327459456        0.96652012349472       -0.89342320998517
C           64.46278932379835        1.96459440591430       -1.67250932667728
C           65.43029320366074        2.73905866699093       -2.25162777291238
C           66.69474724550750        2.23567687665210       -1.84303627934152
N           66.45622632160206        1.17135465389472       -1.02740303494120
C           67.96214270878248        2.72647766596575       -2.20379151192662
C           67.98442268153632        3.84529656604835       -3.06572860100803
C           67.99641667880131        4.80855680314871       -3.80373690876919
C           68.02016266978556        5.93092387029319       -4.66263885577046
C           66.83585251142880        6.51472206975616       -5.12786024503571
C           66.91399006074978        7.61245317397644       -5.96618198625166
N           68.06738750238392        8.14823440550362       -6.35771479631032
C           69.19763189042860        7.59905394370996       -5.91986273791176
C           69.22905881838969        6.50067197437954       -5.07936716244328
C           69.19134468670234        2.19669589275111       -1.77739659751754
C           70.47421400562841        2.73650969050979       -2.18379229081966
C           71.41363722800513        1.97961813900911       -1.57880555968211
N           69.36283057863044        1.13953830186560       -0.94798183818080
C           70.69894526338884        0.98256556101222       -0.80511069215020
C           71.34615671547540        0.01321008921528       -0.01849578182268
C           70.71664067203386       -0.97845029781210        0.75704683433949
C           71.35800535680008       -1.96614509073587        1.54941662366390
C           70.38653777164257       -2.74209226536703        2.12187916984196
C           69.12681344762217       -2.24749709216795        1.69439946233764
N           69.37269256143098       -1.18299445569014        0.87523776796097
C           67.86096808657148       -2.75209803941659        2.03998408237132
C           67.83831571027848       -3.87558417153640        2.89438550100055
C           67.82256676946956       -4.84496143575439        3.62461288518427
C           67.79793559118654       -5.97557645002216        4.47217009371870
C           68.98164749574015       -6.56068819326290        4.93745656020202
C           68.90253620328956       -7.66747179075644        5.76363874675282
N           67.74882955583206       -8.21088746001597        6.14356162380027
C           66.61913692540566       -7.66054108340150        5.70565057041148
C           66.58864043596388       -6.55355828106360        4.87658731707034
C           66.63125263131282       -2.22886812819272        1.60150867058181
C           65.34227988258365       -2.77620616944515        1.98752962690807
C           64.40936520895229       -2.01478033582368        1.38035344564686
C           65.13173473841125       -1.00622239159089        0.62456952895396
N           66.47218028278481       -1.16938271750266        0.78375055074879
H           63.42084737784364       -0.04160889865804       -0.15364368748725
H           63.39374325637566        2.06662954718320       -1.76955299704337
H           65.29116936679425        3.58535869887085       -2.90511692720415
H           67.17562323220226        0.61066944960110       -0.58324524349619
H           65.87475421649852        6.11042510359333       -4.83373630780919
H           66.01105518623058        8.08516259751277       -6.34191620691704
H           70.12045303045930        8.06118632263110       -6.25861945932064
H           70.17257186342462        6.08515970988748       -4.74661749950117
H           70.60804024425327        3.57961182111775       -2.84261679147904
H           72.48709858384765        2.06607308436196       -1.63206062562064
H           72.42590796895647       -2.06367459932283        1.66012418483362
H           70.52217504905921       -3.58366400149810        2.78193128256802
H           68.65604013280817       -0.62900543668526        0.41801000082610
H           69.94298918035378       -6.15046487063828        4.65249096301886
H           69.80496918738295       -8.14148271147434        6.13893162731252
H           65.69606324961499       -8.12901842485386        6.03481985342387
H           65.64560356645605       -6.13754492512997        4.54319610796662
H           65.20347576370354       -3.62638215376870        2.63642273683198
H           63.33484511786678       -2.10097402263722        1.41946625766439
C          125.33250230461734       -0.15768414769550        0.02630123799065
C          124.72550235696251       -0.98707338352275        0.96241312212905
C          125.37038342806119       -1.84507992465881        1.89538136235321
C          124.40078921967354       -2.47637484868749        2.62535703045325
C          123.13809777909783       -2.02081514450377        2.15965257903518
N          123.37945488620515       -1.12810653991775        1.15980543611665
C          121.86950683009906       -2.40189880890037        2.63179504373173
C          121.84243012775322       -3.34961491345977        3.67884793296032
C          121.82166516044924       -4.17026985193092        4.57257190315671
C          121.78671593405461       -5.12837111348596        5.61124016932830
C          122.96416864185912       -5.66500391462482        6.14543805764647
C          122.87390469864657       -6.60219725703078        7.15908671977194
N          121.71504588015185       -7.02472996857139        7.65827267338734
C          120.59123154737104       -6.51934280110649        7.15589136219805
C          120.57197229128840       -5.57819880898334        6.14212111294268
C          120.64247095139540       -1.92102098953527        2.14597805716401
C          119.35890275740444       -2.33718172883709        2.67628646983868
C          118.42162975901678       -1.67787028664029        1.96337845165722
N          120.47341100831112       -1.03055674152321        1.13880244276217
C          119.13836956544510       -0.86432133852204        1.00011889281292
C          118.49184312178694       -0.04596657028490        0.05603038270233
C          119.12305734186977        0.76286859724753       -0.90791464628131
C          118.48390242175709        1.59596765727543       -1.86280359996708
C          119.45765341642115        2.22426990836381       -2.59145571705130
C          120.71649153974074        1.79001222170535       -2.10064238992718
N          120.46775152985833        0.90799680814480       -1.08823846375636
C          121.98419799121783        2.19011579016600       -2.55817961433247
C          122.01105704294163        3.12982038567838       -3.61122850332266
C          122.03624328197881        3.94176998657864       -4.51307993383698
C          122.06984310656925        4.88864745474034       -5.56169397976974
C          120.89112984299585        5.39067497597554       -6.12609934287901
C          120.97980334726100        6.31770099890763       -7.14915650425360
N          122.13818739712198        6.76220836298111       -7.63000140178949
C          123.26322175171939        6.28985076519012       -7.09891172889761
C          123.28416030955901        5.36141426285904       -6.07362015765591
C          123.21282174161539        1.73124251334229       -2.04974413828872
C          124.50356150451813        2.16852565140834       -2.55265110244339
C          125.43445556700391        1.51166608413896       -1.83106194684309
C          124.70923048689841        0.67638584774261       -0.88949417056745
N          123.36898039977947        0.83845254949162       -1.05226119432111
H          126.41766168311752       -0.17217546943076        0.01828837736494
H          126.43897070935100       -1.95676160969239        1.98663935850699
H          124.53758152802052       -3.19422335684797        3.41820355741220
H          122.66156603433829       -0.63828084244591        0.63644847659983
H          123.92931069001865       -5.34912834607006        5.76809685272257
H          123.77130527547939       -7.03517257404206        7.59167922954821
H          119.66367604534157       -6.88612810235753        7.58596516270851
H          119.63340617682354       -5.19324336986556        5.76206708463076
H          119.22310575964941       -3.03854915764157        3.48399678797179
H          117.34838242330932       -1.72058389827179        2.05778659792637
H          117.41590167670238        1.69656225343640       -1.96988893481133
H          119.32404885282304        2.92724311158617       -3.39787445872193
H          121.18325364748262        0.43354970061561       -0.54738247693903
H          119.92617092089763        5.05618787319278       -5.76467406816361
H          120.08140724898989        6.72369201168438       -7.60520067229291
H          124.19037645268713        6.67373848455642       -7.51473102161452
H          124.22364417709437        5.00352021197025       -5.67009058675352
H          124.64490210622360        2.88097092936811       -3.34987172262408
H          126.50935938053364        1.56490299484041       -1.90383171155847
C           73.97598869050870        0.01466737250565        0.02491062478476
C           72.75506305729675        0.01909779321348        0.00344024299119
C           75.32767222481195        0.00643342951641        0.03953844219718
C           76.54870658337715       -0.00696401989308        0.05485599551106
C           87.49055911067168       -0.08932776633687        0.04100493922206
C           86.26806023724976       -0.09087358581267        0.04266351567087
C           88.83909961188114       -0.09097959918610        0.03762132481312
C           90.06162799893039       -0.08948823346592        0.03707645358858
C          100.99999565116075       -0.05274595699646        0.03324591341746
C           99.77748985011262       -0.06264702794141        0.02805197163042
C          102.34851170866483       -0.05058360641617        0.03624370144490
C          103.57100153762239       -0.04624254820547        0.04410020901813
C          114.51140170314774       -0.01166925001926        0.06936424109135
C          113.28989518768769       -0.01196999774628        0.06978297537260
C          115.86244422245228       -0.01688808431402        0.06489186481549
C          117.08381129744265       -0.02844151732459        0.06161407997675
C           77.95689585650284       -0.02769024347776        0.05711606400754
C           78.58075860272073       -0.24345739521521       -1.18671570992249
C           77.93725756682259       -0.45279831824529       -2.43302166078815
C           78.90839044160298       -0.64613016704771       -3.37920203768527
C           80.16808301054124       -0.55690895242411       -2.73363617083245
N           79.92476501129413       -0.31096877694416       -1.41338967834737
C           81.43305781392374       -0.69646331529319       -3.33458054910515
C           81.43961163915601       -0.97401102408553       -4.71988542180529
C           81.43880147963024       -1.22390861285818       -5.90741139636554
C           81.44277933792503       -1.51992417588380       -7.28956554252834
C           82.64095319780753       -1.71066237521395       -7.98790153281649
C           82.58959259137674       -2.00359995281256       -9.33898978620920
N           81.44971543799392       -2.11448711436814      -10.01658056623956
C           80.30650056309875       -1.93410901425597       -9.36005724739984
C           80.24828203873393       -1.63801327475561       -8.00990116022610
C           82.67012973203308       -0.58744339262034       -2.68152977526041
C           83.94306397002806       -0.72440623673435       -3.36164223637867
C           84.89640714708275       -0.55037902614686       -2.42213638266911
N           82.86140611782308       -0.34010991280478       -1.36233248530305
C           84.19929478746339       -0.31232083543317       -1.17343585907544
C           84.86364939951592       -0.09072710104316        0.04785666455559
C           84.23894732941356        0.12946835116124        1.29168372265771
C           84.88231235838509        0.34428287092523        2.53691185175892
C           83.91060976298159        0.50605233699421        3.48851037711420
C           82.65066809960432        0.39506995414658        2.84656625019691
N           82.89516577570485        0.16846878675281        1.52254957621639
C           81.38552151397745        0.49818214162442        3.45316620393162
C           81.37739575804757        0.73192778077298        4.84632347210646
C           81.37798310737027        0.92495937598920        6.04446374265200
C           81.37061803118432        1.15718581587898        7.43869494189373
C           80.17034165753618        1.25592610287494        8.15223051733371
C           80.21857332775343        1.48072066733482        9.51647589700615
N           81.35720325971427        1.60980022616650       10.19280756263848
C           82.50251713317942        1.51780876621057        9.52165549575639
C           82.56391829806527        1.29445340261504        8.15777589638391
C           80.14788352201001        0.39373343714871        2.79804713922086
C           78.87464141075421        0.51598242666098        3.48110897078359
C           77.92139985255032        0.37026360710928        2.53687314088794
C           78.61816270594908        0.15884474353066        1.28325968129428
N           79.95777451456556        0.17724811411411        1.47486834262643
H           76.86913085686635       -0.45632282269277       -2.57847683911380
H           78.77089937819014       -0.83376553098680       -4.43186998344144
H           80.63938363616838       -0.20039884678018       -0.70174289086097
H           83.59153411440892       -1.63012844518071       -7.47457949084375
H           83.50357561069033       -2.15714650850270       -9.90547704752595
H           79.39531908746785       -2.03173547214741       -9.94327966883188
H           79.29489467299793       -1.49942423401497       -7.51439375509550
H           84.06182674684996       -0.92367285697758       -4.41469098256774
H           85.96840016160483       -0.57694946501982       -2.53506518640446
H           85.95068856859331        0.36934996740450        2.67862774997040
H           84.04775633267617        0.68657252815205        4.54248038294612
H           82.18074141950065        0.04610882620605        0.81265708977102
H           79.22053110469518        1.15671845540920        7.64084262810787
H           79.30285240924613        1.56097070872188       10.09514983356199
H           83.41254562641517        1.62793361241891       10.10440092759591
H           83.51872828994996        1.22607484418044        7.65049104520243
H           78.75595820257536        0.69062237421970        4.53852212100034
H           76.84941943464733        0.39884753455080        2.64929986245093
C           91.46595542875036       -0.08958808598298        0.03538297438865
C           92.09374351235276       -0.33768690004592       -1.20195967224856
C           91.45322734976138       -0.59088817464034       -2.44110056126922
C           92.42727681736598       -0.78202819416430       -3.38526601821160
C           93.68526914825058       -0.64896973566328       -2.74464476518692
N           93.43804174473181       -0.38128408906774       -1.42893546912269
C           94.95259178454603       -0.76789304132390       -3.34510578918837
C           94.96487244421428       -1.05510308221415       -4.72834562137767
C           94.97078399411222       -1.30577858030590       -5.91572974084809
C           94.98488831438904       -1.59963068939537       -7.29829875494785
C           96.18864554558397       -1.78867944930999       -7.98749446847293
C           96.14823301244827       -2.07607639133526       -9.34013430657991
N           95.01392395292062       -2.18267491399734      -10.02765056313220
C           93.86545582924177       -2.00394485250203       -9.37989300504567
C           93.79628440538016       -1.71377285918342       -8.02894006694278
C           96.18770921930988       -0.62765701458206       -2.69393261630060
C           97.46270042338581       -0.75363460156915       -3.37223209615689
C           98.41315375930641       -0.55701040994276       -2.43420714746959
N           96.37486999915977       -0.36163699142000       -1.37783873841924
C           97.71238516304221       -0.31384282980310       -1.18868753165232
C           98.37320386026251       -0.07029670328764        0.03020510383049
C           97.74539656465873        0.16610970022787        1.26989689370268
C           98.38594560225978        0.40684547078039        2.51150891055741
C           97.41194753555934        0.58413910118166        3.45842083324494
C           96.15397008530350        0.45654563092429        2.81671790004063
N           96.40113729485961        0.20455464167293        1.49787921640182
C           94.88667980389897        0.56907524984647        3.41838619342789
C           94.87413443426898        0.83177823633938        4.80647193402630
C           94.86732145599663        1.05422452759239        5.99945419898981
C           94.85228920764943        1.31164997714291        7.38924200582458
C           93.64748645000935        1.42606202774363        8.09283563808509
C           93.68704810572351        1.67680923285438        9.45278952933971
N           94.82149051837885        1.81662253012324       10.13405433890123
C           95.97097279397278        1.70964592889741        9.47243298680670
C           96.04103356987144        1.46025574982204        8.11341737216704
C           93.65155221545977        0.44373600028252        2.76423976772989
C           92.37657435195023        0.57740070675866        3.44106696739227
C           91.42606407050943        0.39617514808197        2.50003011104741
C           92.12680517945843        0.15168829131889        1.25473802056570
N           93.46436305884966        0.18766818211964        1.44618699457915
H           90.38518478509418       -0.62202279685024       -2.58402691917537
H           92.29243537589430       -0.99601666200218       -4.43324467387229
H           94.15118713638333       -0.23692684436690       -0.72186743540190
H           97.13501245891943       -1.71100117024145       -7.46603795008638
H           97.06674964012480       -2.22820860320189       -9.89965315496323
H           92.95911577379208       -2.09787571414626       -9.97117920318568
H           92.83896251564909       -1.57604244926677       -7.54083755412568
H           97.58468239948034       -0.96307999503252       -4.42292854541353
H           99.48546544809052       -0.57036875968681       -2.54643638618060
H           99.45395590481537        0.43833310668986        2.65454443029306
H           97.54680801427489        0.78588911759144        4.50882328417309
H           95.68795354621126        0.06538948523635        0.78980926882826
H           92.70095436823549        1.31891234350620        7.57695014074343
H           92.76768397364957        1.76997683175086       10.02369508974664
H           96.87736504941186        1.82922860757221       10.05896993365884
H           96.99909348691664        1.38049265601384        7.61401756208833
H           92.25467742052253        0.78264143958493        4.49260083303964
H           90.35373979789262        0.41969287000647        2.61036390847121
C          104.97538031847201       -0.04432061120244        0.04789017261052
C          105.60786911494377       -0.27654578778405       -1.18992391098928
C          104.97262365792685       -0.52045801393205       -2.43386114521275
C          105.95052756971866       -0.69444203460250       -3.37707216631318
C          107.20601182479747       -0.55868368778789       -2.73151717990324
N          106.95302521052817       -0.30817042027532       -1.41345192535299
C          108.47527058592695       -0.65512752780356       -3.33066279183269
C          108.49487509103800       -0.93175688477605       -4.71582032777028
C          108.50852674685387       -1.18265490548390       -5.90311109279340
C          108.53312015535096       -1.48062372854912       -7.28457845942089
C          109.74299923352831       -1.64406232012653       -7.96961338758372
C          109.71325918792689       -1.94022326890563       -9.32062538699551
N          108.58372088015498       -2.07874765784256      -10.01033184495189
C          107.42948335695300       -1.92432295465684       -9.36655006417051
C          107.34959932091647       -1.62787784334554       -8.01756981683911
C          109.70785552232451       -0.50627728845064       -2.67509188110558
C          110.98507607130944       -0.59676417859085       -3.35539528707587
C          111.93205945732301       -0.41189872193520       -2.41173793363404
N          109.88959000316994       -0.27090620608933       -1.35358002512530
C          111.22744292618488       -0.21364201341032       -1.16032535807673
C          111.88251200151453       -0.01845566304965        0.06856635975270
C          111.25128890100284        0.16533835272531        1.31403777967049
C          111.88685576013654        0.35908113663134        2.56677851004919
C          110.90923408037662        0.51377273203168        3.51359233266319
C          109.65349817231588        0.41856095299640        2.86131916159952
N          109.90566049967784        0.20570758291261        1.53687922355979
C          108.38397067865324        0.53055989766439        3.45841189707003
C          108.36542869186938        0.76278927952973        4.85193911722053
C          108.35087188490421        0.96194260118769        6.04894878717949
C          108.32554062569885        1.19380478784332        7.44311198509056
C          107.11506928881127        1.30924749056770        8.13683458244268
C          107.14368372391800        1.53586544630896        9.50125090239781
N          108.27272019276317        1.65126001805963       10.19598956923015
C          109.42749099482320        1.54287774693008        9.54389087030179
C          109.50847022409222        1.31639825802323        8.18144375892264
C          107.15139475527627        0.43353094256495        2.79467999400311
C          105.87395252009446        0.56644684607813        3.46727470882079
C          104.92683818423151        0.40880081398801        2.51864966602079
C          105.63200580886266        0.17952811423312        1.27288871925172
N          106.96874660796972        0.20314920868408        1.47123252551811
H          103.90524087335780       -0.55765563895266       -2.58024843360557
H          105.82020444770444       -0.89754851320871       -4.42778911763521
H          107.66279722177143       -0.16795052673760       -0.70217989568124
H          110.68577748022220       -1.54051813075933       -7.44614361571841
H          110.63671626071458       -2.07320544068632       -9.87686006168354
H          106.52732474027614       -2.04418901885754       -9.95954894012031
H          106.38790709046685       -1.51113055094041       -7.53261109065099
H          111.11059044935412       -0.77625689429002       -4.41120305500685
H          113.00449280466245       -0.40822239246499       -2.52320810365063
H          112.95431317529412        0.37743262771869        2.71616073648264
H          111.03990368533162        0.68038218932628        4.57067324344412
H          109.19529163518852        0.09592785466211        0.82085370970940
H          106.17263251186327        1.22171505712264        7.60986166617378
H          106.21973719680054        1.62942302215401       10.06466559260031
H          110.32924161865436        1.64218310310987       10.14126222954096
H          110.47062626008653        1.23475702639535        7.69029627031399
H          105.74821309424817        0.75474966894503        4.52152412106104
H          103.85416259609013        0.43903379165458        2.62396602721060
