314
 energy: -496.750200031420 gnorm: 0.000523583149 xtb: 6.5.1 (b24c23e)
C           44.17994408033081        0.08874353118476        0.09734481600011
C           44.79013040545609       -0.07590870534632        1.33465717181834
C           44.13958047506641       -0.17654781081304        2.59561705949705
C           45.10065339854447       -0.34586190906267        3.55318687861992
C           46.36845280231833       -0.36504881644705        2.90635326320158
N           46.13115877991348       -0.18696711719695        1.57281543015013
C           47.63011352768405       -0.51563816524617        3.49717532061315
C           47.65770410160219       -0.74232705376239        4.95967946576102
C           48.34675158048552        0.12307664306349        5.81132635805252
C           48.36354299066471       -0.07935317731304        7.17925127292389
C           47.69209742729539       -1.16815348362756        7.75604049916383
N           47.75292910369426       -1.41040962473551        9.12462424689300
C           48.14603537500718       -0.29844070854416        9.99035460825328
C           46.72584538724839       -2.27999188958097        9.69969715781337
C           47.01433699852133       -2.04612659035508        6.89641417155786
C           46.99367950870556       -1.82969198584818        5.53080058655663
C           48.84260023001193       -0.46692320233821        2.80420961548759
C           50.13822353526540       -0.69030496955373        3.41918765927558
C           51.05641293475056       -0.54846867910061        2.44041323985122
N           48.99481368846028       -0.22262431968265        1.47250768789438
C           50.31968343174825       -0.25398050197030        1.22715305698104
C           50.95570314176331       -0.03420160893841       -0.01276593311750
C           50.32004744402013        0.18608333653338       -1.25039158340252
C           50.96627481297416        0.42794661826551       -2.49097393820753
C           50.00039093113899        0.57232857549696       -3.44879089339081
C           48.73359993651007        0.41472569654607       -2.82251534369309
N           48.97913910147666        0.19268530205954       -1.49242389467534
C           47.47216544413592        0.49563193566691       -3.42411617337933
C           47.44020759416263        0.69371684041604       -4.88987827281827
C           46.78910819632668        1.79156120032301       -5.45593961338613
C           46.76085097379592        1.98126296085668       -6.82539800493423
C           47.38058090356452        1.06920062757311       -7.69338963807286
N           47.30227041076547        1.21952886467643       -9.07389507038961
C           48.28604255650845        0.50194323976579       -9.88578530852140
C           46.95158694265421        2.54196894589878       -9.59187030817825
C           48.02244735439392       -0.04080120431929       -7.12297771263360
C           48.05618662224450       -0.21599512772404       -5.75182982061628
C           46.25669356794360        0.40132445352666       -2.73495173272900
C           44.94967931738152        0.42875209001553       -3.37200059897009
C           44.03913414740791        0.32342768141121       -2.38265615246014
C           44.78865281548434        0.21476800359087       -1.14424524429256
N           46.12068563767993        0.25596571975127       -1.39579689045085
H           43.09485315103547        0.11632636548052        0.11229320092201
H           43.07239694277400       -0.11820334052109        2.73977184041132
H           44.94941074971528       -0.43791237421509        4.61651407686925
H           46.85654262336160       -0.13842075254534        0.86515090167218
H           48.85868295222392        0.98474401315482        5.39671624952412
H           48.90956930750987        0.62513476288663        7.79327718006736
H           47.49626184133717        0.57224632980656        9.84778736387163
H           48.08695576565809       -0.62193630943325       11.02901411970713
H           49.17914475935823       -0.01944949921693        9.78082979587945
H           45.71778298470934       -1.92450797584457        9.45903652973733
H           46.85221636201920       -3.29557780205343        9.32292209523759
H           46.84755128696600       -2.30317975215954       10.78204082682041
H           46.49996271367394       -2.91594324653468        7.28432044779045
H           46.47208569834923       -2.53351050694450        4.89095313521908
H           50.30201821885241       -0.93871206434696        4.45527137634386
H           52.12872012981129       -0.64222269214173        2.50515116675789
H           52.03453128355738        0.48822625665682       -2.62343205040113
H           50.15009914709415        0.78358029310090       -4.49503901036245
H           48.25545039262941        0.06531108799429       -0.79264530600882
H           46.31768537518242        2.52419301708759       -4.80978729119468
H           46.24653178190430        2.85257689095852       -7.20982092171308
H           48.15944484362329        0.78784226585200      -10.92933361276031
H           49.31011175530566        0.73210437993597       -9.57187275570241
H           48.11439056520282       -0.57204993939934       -9.80555691988595
H           45.93539256739070        2.79588220828576       -9.28870445968717
H           46.98263558384870        2.51388704322153      -10.68053360189121
H           47.64342486541500        3.31186283545973       -9.23236347496100
H           48.49728189289710       -0.78779365943266       -7.74601101425200
H           48.54826313096201       -1.09149009870459       -5.34177893222209
H           44.77556851273059        0.50214138213922       -4.43346046747241
H           42.96275009727491        0.30512090259705       -2.45439962172684
C          106.64226601420101        0.11797438780538       -0.08381566106278
C          106.03138480094367        0.24342473516752       -1.32538088220228
C          106.68083144281866        0.44263751689961       -2.57512060189441
C          105.71938128006909        0.49628355401427       -3.54570497890556
C          104.45248932592119        0.32061689282106       -2.92104731712779
N          104.69061219563041        0.18415280727000       -1.58275037572696
C          103.19069104099144        0.30623882626405       -3.53034795933563
C          103.16172209694255        0.42806400267740       -5.00520896068339
C          102.46608563065244        1.46506169133143       -5.62958646201312
C          102.44753668234647        1.58920947836425       -7.00676369889546
C          103.12397961750091        0.67026120670249       -7.82341707899077
N          103.06182240788584        0.75577664419676       -9.21063677674139
C          102.66174495110485        2.03800939107054       -9.79062857505631
C          104.09291623616916        0.05165098187387       -9.97413021111378
C          103.80835358830913       -0.38092986059605       -7.19430621218412
C          103.83061094126442       -0.49096566219063       -5.81603088603146
C          101.97887060124991        0.18706593835459       -2.84469329865454
C          100.68340843290483        0.10777253358918       -3.49451845203653
C           99.76566650104512        0.01571861844929       -2.50940253841298
N          101.82711675471162        0.11500115587874       -1.49265820411841
C          100.50254145608591        0.02330744501922       -1.26106244811034
C           99.86685464494283       -0.05123360620525       -0.00384774145259
C          100.50296681366879       -0.12107615951765        1.25103903796632
C           99.85740402732412       -0.17482033352607        2.51419101563146
C          100.82385378027919       -0.25555888743750        3.47889973080710
C          102.09035220037281       -0.26134716202865        2.83254174595349
N          101.84405995291996       -0.16858747143858        1.48738804610028
C          103.35215761043516       -0.32022770162930        3.43583372359623
C          103.38527533786538       -0.46901398912038        4.90741730064524
C          104.03382244261472        0.46891578611142        5.71318539396168
C          104.06381222659959        0.33420871833850        7.08908568837705
C          103.44859980792292       -0.75732139017745        7.72105791203218
N          103.52927400921521       -0.93250225896693        9.09854151764446
C          102.55118691510810       -1.82506416709787        9.72186198844042
C          103.87356564187455        0.23516219563264        9.90988726075002
C          102.80917404093070       -1.70593088215552        6.90821960375434
C          102.77350642620358       -1.55666477216768        5.53403323843091
C          104.56721009173015       -0.24803843389662        2.74327034193717
C          105.87474033407770       -0.36542647241008        3.36898035207894
C          106.78469984698889       -0.23293178006914        2.38236435403088
C          106.03437917587443       -0.05219610814377        1.15289140694471
N          104.70242495598613       -0.07620925406831        1.40720408341798
H          107.72720024743377        0.15356915433457       -0.09192362593396
H          107.74753990376493        0.53836612459191       -2.70177979456230
H          105.86985599683621        0.65525267394075       -4.60120981121573
H          103.96586541299266        0.06318069422471       -0.88315246900598
H          101.95025404191399        2.20235831191499       -5.02398933514882
H          101.89618981951904        2.41481252844881       -7.43788012144361
H          103.30792340453857        2.85402956229341       -9.44830500911161
H          102.71994712201804        1.96771136066385      -10.87627213021202
H          101.62786133230286        2.25493428932122       -9.52032922993083
H          105.09931126281791        0.34576718947596       -9.65613368986411
H          103.97219576039318       -1.02477664586686       -9.84731741308960
H          103.97032607417431        0.28355509798704      -11.03148242065917
H          104.32675344859844       -1.13236679809927       -7.77589582550040
H          104.35737987990488       -1.32228249581080       -5.35967673119170
H          100.51938069979349        0.10560131733556       -4.55992045990310
H           98.69358772646844       -0.06379605659228       -2.59387398593420
H           98.78917170805701       -0.14848159981169        2.65752412816481
H          100.67477919364202       -0.29354804287425        4.54568245734846
H          102.56734366344715       -0.12888753661723        0.77680868727265
H          104.50188837519222        1.33354243465010        5.25512139959360
H          104.57613086423203        1.09357284475371        7.66561009156461
H          102.68018836992988       -1.79110797057499       10.80305151268948
H          101.52509455656369       -1.53268394174039        9.47304139985651
H          102.72706777936962       -2.84948722194958        9.39175031769206
H          104.88838855575445        0.55758556510927        9.67489919091549
H          103.84293650735282       -0.04512539855494       10.96223525172339
H          103.17778176778239        1.06406701203763        9.73837523697857
H          102.33772994497116       -2.57922135539632        7.34034003315432
H          102.28330541080979       -2.31396916621322        4.93156531414867
H          106.04955891106624       -0.54156640991102        4.41817753978019
H          107.86121800628263       -0.26322178716777        2.44778044027055
C           52.36009383040079       -0.03374520203738       -0.02943674930068
C           53.58522584319741       -0.02030262480009       -0.04002331611699
C           54.92689719009378       -0.00878826842010       -0.05055575179945
C           56.15817355875440        0.00502585252472       -0.05982100909663
C           57.49504528933606        0.02091489229569       -0.06379830460078
C           58.72634040200619        0.03653856405996       -0.06455251824174
C           60.06772154013679        0.05498973099561       -0.06140278227472
C           61.29297171700713        0.07775075845043       -0.06108754449459
C           70.94489125412078        0.04723504722030       -0.00267617891836
C           72.17029006816367        0.02770133367635       -0.00343498881529
C           73.51147287884358        0.01565860121470       -0.00174156593920
C           74.74302168634287        0.01026025055109       -0.00259628965809
C           76.07963196772950        0.01097607165939       -0.00269668973355
C           77.31118875468428        0.01735487642799       -0.00376253777283
C           78.65237204607072        0.02938536696811       -0.00179449704572
C           79.87780735741974        0.04617646112557       -0.00232724036039
C           89.52974066638861        0.04986500994508        0.05482634832905
C           90.75495839010291        0.02555037413080        0.05741693103385
C           92.09627627631940        0.00218389710368        0.05899474006162
C           93.32751910243107       -0.01738808088516        0.05540995058136
C           94.66437784534722       -0.03484729505345        0.05006422369693
C           95.89562975653254       -0.04661776450976        0.04078785565901
C           97.23732536370720       -0.05375837182217        0.02896335744884
C           98.46246796125995       -0.05812342989872        0.01264023340278
C           62.69624050992959        0.09709168288877       -0.05196595492043
C           63.31361949511776        0.03128773736819        1.21315817114182
C           62.65423613368475       -0.07801564477015        2.46378880486888
C           63.60937191838413       -0.07540769051985        3.44441445065386
C           64.87962185805470        0.04342329600163        2.81943601534038
N           64.65068941043921        0.09117790564267        1.46995831937471
C           66.13241774590725        0.08775392849335        3.44716887391759
C           66.12886850730956        0.09533437411833        4.92744099167594
C           65.46486356985474        1.09791599389971        5.63724890724431
C           65.45966921653218        1.11467721170179        7.01976006968168
C           66.10899343576341        0.11194013780198        7.75619217090543
N           66.14440614044375        0.15373887866967        9.14600810091604
C           65.11718192664972        0.94809547812234        9.82115597700607
C           66.50454120600914       -1.07695519169165        9.85036706754835
C           66.77900862972909       -0.89226600683508        7.04067282750913
C           66.78932855709883       -0.89434604660037        5.65785802589830
C           67.36153126345106        0.12628692405509        2.78498113585141
C           68.64270247829067        0.23168715123703        3.45907604142918
C           69.58595837206833        0.21538840643569        2.49397486556472
N           67.54669915690518        0.07856214693210        1.43626669408865
C           68.87878314931645        0.11805356717801        1.23317346416773
C           69.54193497267124        0.07108874442724       -0.01050341479622
C           68.92427059613003        0.05914593737990       -1.27720557704000
C           69.58304652008644       -0.00728864184368       -2.53125323474766
C           68.62815304421768        0.04025451367052       -3.51091208906157
C           67.35875644702428        0.14520495242571       -2.88164386370213
N           67.58790838785168        0.13945661576668       -1.53123174719457
C           66.10650913899903        0.22294812940126       -3.50662994254640
C           66.10876622594034        0.28342783428119       -4.98565107341923
C           66.77847815753070        1.30559273008535       -5.66131487295271
C           66.78004462486125        1.37118334786664       -7.04239989347115
C           66.12109833624045        0.40001209964530       -7.81194894581087
N           66.08134923937608        0.49235153469829       -9.19896701807239
C           65.69789367400983       -0.70537069105221       -9.94626561850355
C           67.11633043133031        1.29686375235284       -9.84971564084395
C           65.44648840408173       -0.62466854897834       -7.13057214288640
C           65.43987317701099       -0.67549176748910       -5.74872454985675
C           64.87760940223150        0.24665879228714       -2.84291511276461
C           63.59749746739418        0.38780884637175       -3.51237543045107
C           62.65387648249917        0.34129084416133       -2.54858507165931
C           63.35991615128780        0.18987373595578       -1.29259680367311
N           64.69193193461793        0.14870403406334       -1.49718218070758
H           61.58615538707399       -0.15313593632694        2.58940728610484
H           63.44871721227039       -0.16176431836700        4.50662239974779
H           65.37797658303573        0.15483810481199        0.76551908233190
H           64.96439627028757        1.89376748477736        5.09603518664018
H           64.94748835048257        1.92680519776432        7.51942466687339
H           65.21664938842513        0.81325498847281       10.89759178165963
H           65.26483914817832        2.00512623415766        9.59714054683806
H           64.10989511690407        0.64705740060280        9.51283832160177
H           67.53587824195003       -1.34348624192418        9.61737743945808
H           65.84202710460328       -1.90580414103084        9.57701827777465
H           66.43447559401091       -0.90243542816018       10.92350146037270
H           67.30291517917162       -1.68656971211076        7.55646573211198
H           67.29942819899868       -1.69468660706425        5.13282818081010
H           68.78150867751860        0.32255970366255        4.52414524731481
H           70.65750474095496        0.27596460395724        2.59853751950398
H           70.65051312604038       -0.08650704769034       -2.65961811496300
H           68.78814816462585       -0.00664185559252       -4.57569620364927
H           66.86077513001868        0.18180906739571       -0.82503765349481
H           67.28593691737979        2.07830294935986       -5.09371474679087
H           67.29638996911189        2.19688437110275       -7.51485101524008
H           66.34793656935389       -1.55449339610802       -9.70746753609022
H           64.66346133149513       -0.96345289734905       -9.71739472519414
H           65.76547579060444       -0.49248806697581      -11.01259252199883
H           68.12055502362399        0.97425176586000       -9.55358685056354
H           67.01355826415984        1.19887729688236      -10.92979971963306
H           66.98142248372443        2.34756207409031       -9.59052660873394
H           64.91623003110733       -1.39701579040762       -7.67251662623638
H           64.92580937240642       -1.49041208838804       -5.25068955255195
H           63.45979380574595        0.52085772012692       -4.57313842607029
H           61.58285844562521        0.41394233525950       -2.65075499633148
C           81.28082096626942        0.06733703132663        0.00588445043407
C           81.89873023572578        0.01014479849549        1.27123355878820
C           81.23987627711801       -0.09862242824911        2.52227840052151
C           82.19499332314700       -0.08859810436213        3.50281152586114
C           83.46465226489985        0.03480344720842        2.87741901588797
N           83.23535031608981        0.07758084633809        1.52768765180001
C           84.71719321542167        0.08608963263530        3.50463789780275
C           84.71481699795396        0.09567004490764        4.98482065416583
C           84.04700106259025        1.09571853896991        5.69466411377614
C           84.04535893835404        1.11463917793538        7.07715107103294
C           84.70240796634921        0.11681743898945        7.81353626224159
N           84.74253529605026        0.16270482390727        9.20283359131441
C           83.71026563603594        0.94856518318345        9.88017904712157
C           85.12223398105101       -1.06016551557191        9.91018339327560
C           85.37478024345396       -0.88578261986962        7.09794712550092
C           85.38145148030681       -0.88995884987321        5.71516177603257
C           85.94618901100093        0.12836058009973        2.84196719892285
C           87.22697675387043        0.23996831763668        3.51570484440042
C           88.17026601940664        0.22414299152441        2.55059928841753
N           86.13128659233634        0.07823823697082        1.49353308520259
C           87.46343741436603        0.12144929681031        1.29015728411811
C           88.12652062903803        0.07396115743098        0.04662725594617
C           87.50875738414244        0.05931626118873       -1.21991968239338
C           88.16787018867636       -0.00284274802687       -2.47395038793666
C           87.21263587930622        0.03840111551683       -3.45360038477789
C           85.94259972360449        0.13458698442082       -2.82431398519806
N           86.17176912151315        0.13107763523099       -1.47401650116785
C           84.68971525678131        0.20169988603612       -3.44975952965900
C           84.69323493725726        0.26285964007893       -4.92888300614574
C           85.35437961074108        1.29252475077200       -5.60158193776294
C           85.35943172230829        1.35967139416673       -6.98256139850505
C           84.71284986912886        0.38261004954358       -7.75503606588165
N           84.67691393978700        0.47527205020153       -9.14237288813244
C           84.31638771939814       -0.72874866078057       -9.89119483597531
C           85.70352266141249        1.29425789390362       -9.78841603088298
C           84.04602665260786       -0.64911365463157       -7.07665874733982
C           84.03581629384070       -0.70162206502270       -5.69481110343857
C           83.46067518786646        0.21613262992316       -2.78656122157768
C           82.17936431188490        0.34377352382172       -3.45656414771958
C           81.23628429696551        0.29499227896997       -2.49240967701320
C           81.94366793477435        0.15540492328705       -1.23569434505856
N           83.27571744484780        0.12249735475231       -1.44024194498620
H           80.17219932770490       -0.17926814586723        2.64797858573605
H           82.03489897187809       -0.17300585928572        4.56526813027879
H           83.96249136896463        0.14279429203351        0.82324155901319
H           83.54115765025928        1.88818812499603        5.15347673608871
H           83.53048342123923        1.92489232567649        7.57714168348696
H           83.81181139793607        0.81316962551349       10.95632531522450
H           83.84955219704239        2.00698594457313        9.65721641238098
H           82.70499410868510        0.64030896942465        9.57257531427704
H           86.15451736234071       -1.31613093237799        9.66974668185268
H           84.46696745526779       -1.89790895159942        9.64672252304839
H           85.05929999418846       -0.88094407367879       10.98296343278222
H           85.90325753562566       -1.67718974678035        7.61349801439683
H           85.89372690740173       -1.68880807584140        5.18998311650301
H           87.36554156299319        0.33428293396040        4.58049206296457
H           89.24159142844282        0.28855347628860        2.65501712551921
H           89.23584235121099       -0.07457341766899       -2.60243894771789
H           87.37302093395689       -0.00738745053708       -4.51837252127767
H           85.44452274707322        0.16896837832366       -0.76767774725050
H           85.85263539227623        2.06945616456952       -5.03160094750484
H           85.86919404633282        2.19093324904125       -7.45234792668598
H           84.97797211578671       -1.56754189006502       -9.64769503640640
H           83.28466115816214       -1.00263188748841       -9.66867389788396
H           84.38737753792557       -0.51550712768202      -10.95722914175235
H           86.71106246494304        0.98240451256781       -9.49183666211536
H           85.60352625721335        1.19903823206644      -10.86904400387798
H           85.55569685922183        2.34232048140698       -9.52566510775615
H           83.52466272126567       -1.42576759400526       -7.62111425841546
H           83.52822325978292       -1.52209716346066       -5.19925506619840
H           82.04044966560367        0.46983332234261       -4.51802467029070
H           80.16469725394938        0.35868063085557       -2.59470940758575
