248
 energy: -439.878146624343 gnorm: 0.000961496048 xtb: 6.5.1 (b24c23e)
Zn          44.55541921253053       -0.27214419001446       -0.17462194274855
C           41.13544642730713       -0.23441936422987       -0.16857369195062
C           41.76619741634713        0.64344604895722        0.70443465402764
C           41.09796533233127        1.55101559546996        1.59455991443808
C           42.06243886136377        2.22556767357176        2.27079646084946
C           43.32750133317778        1.73557874673091        1.79946406016076
N           43.11878586213853        0.78167261850392        0.85449948914675
C           44.58548656706306        2.17834834278115        2.25026985455560
C           44.59227877211023        3.18446723491218        3.24175825587218
C           44.58692146796313        4.04848286999038        4.09413575899997
C           44.56959446740591        5.05518015378178        5.08601372962562
C           45.75539700275210        5.58415352099946        5.60926701875909
C           45.68008760885859        6.56771206727716        6.57912090275801
N           44.52815318712359        7.04297495037125        7.04618742760532
C           43.39638388412931        6.54562175508753        6.55362187368517
C           43.36219491083111        5.56113872329191        5.58249635008129
C           45.83163131339175        1.70778513927973        1.79897706852263
C           47.10379475204732        2.17053483914109        2.27173439004696
C           48.05532741452418        1.47677507096732        1.59435990529286
N           46.02481051539725        0.74766576099136        0.84949181233612
C           47.36997934828356        0.58655877665990        0.70394712211043
C           48.00002817482509       -0.30947449017357       -0.18152902568195
C           47.34594275021340       -1.19177018566375       -1.06372765424490
C           48.00768008464546       -2.09754849663466       -1.95626732874879
C           47.03834994293936       -2.77035058925379       -2.62929429813575
C           45.77867419866892       -2.27947786017814       -2.15161681156038
N           45.99688333360897       -1.32320717995028       -1.20372654761307
C           44.52108128523073       -2.72324955338798       -2.59905230450521
C           44.51055877127605       -3.72650393973363       -3.59337313331251
C           44.51089776446509       -4.58806865932731       -4.44813786368061
C           44.52295986928772       -5.59331785666407       -5.44156058555819
C           45.72786514029887       -6.09664103670303       -5.94679597082573
C           45.68881718601134       -7.07870241695729       -6.92016548993699
N           44.55452515226978       -7.57585882734582       -7.40724709992553
C           43.40499457507961       -7.10217332393403       -6.93280873236981
C           43.33453265278849       -6.12103327575773       -5.96007279277642
C           43.27474366173221       -2.25387049175615       -2.14403029005705
C           41.99743983385509       -2.71561381851978       -2.61065945367583
C           41.05081324039462       -2.01945668226566       -1.93101110226284
C           41.74256210895749       -1.12664479749254       -1.04378472841242
N           43.09103733029900       -1.29506280215471       -1.19880119099430
H           40.04980290577441       -0.22179752848481       -0.16645492637126
H           40.02740538816816        1.65052353850993        1.68222450585122
H           41.93929001064746        2.98826258340859        3.02347925133334
H           46.71546936263050        5.22618028662675        5.25757722781222
H           46.58436313035779        6.99549744917805        7.00249971133880
H           42.47455185663004        6.95544617762244        6.95646179640411
H           42.41736672072135        5.18460150373515        5.20937112232858
H           47.24262165392318        2.92914177882768        3.02564093456410
H           49.12719215386251        1.55489388914497        1.68363758144424
H           49.07702091314862       -2.20018869548975       -2.05018621196804
H           47.15778577728344       -3.53255015134545       -3.38285377204597
H           46.67447386126734       -5.71989394344260       -5.57843011449007
H           46.60857610796305       -7.48716917952663       -7.32906048840394
H           42.49854826039444       -7.52962308674020       -7.35192054221634
H           42.37612799747301       -5.76419641451170       -5.60265927455026
H           41.85483660830818       -3.47591539572283       -3.36235086225295
H           39.97793889635984       -2.09500476115268       -2.01434793836538
Zn          92.74667190500118       -0.30566667903684       -0.22681805502269
C           96.16505983693257       -0.37941818845193       -0.30365363963512
C           95.51417752481282       -1.57169783268271       -0.59605635636400
C           96.16093918769988       -2.81156434916261       -0.92346493148091
C           95.18065552272269       -3.72562291940368       -1.13839973480923
C           93.92762835590473       -3.05172696345704       -0.94330505935426
N           94.15866570067575       -1.75286662745384       -0.61756233502422
C           92.65929634021894       -3.64829147160362       -1.06988326751283
C           92.62003289158369       -5.01632317221202       -1.41958707484411
C           92.57567205856739       -6.19077197499976       -1.72229028795163
C           92.51374500264660       -7.55841785153811       -2.07339473306526
C           91.28530441379394       -8.21976807190469       -2.19171145614587
C           91.27508500117921       -9.55840287798739       -2.53993498007134
N           92.38288473214011      -10.25854674729026       -2.77161033800726
C           93.55443499664003       -9.63711965843634       -2.66172042634327
C           93.67397295185742       -8.30218758634858       -2.31886420559434
C           91.42511936334193       -3.00034998824265       -0.88169811526035
C           90.14213367646121       -3.62610093681041       -1.01608524874011
C           89.20745045700994       -2.67425967272145       -0.76004066902259
N           91.25492642499492       -1.68844707861074       -0.54873809714064
C           89.91395623177792       -1.46148019895795       -0.46830672368935
C           89.30401142766902       -0.23058663576887       -0.15453772906498
C           89.97753912739837        0.97215706454905        0.13398527558876
C           89.33705928639711        2.21419866022436        0.45333483374617
C           90.32225475921548        3.12411878461276        0.67046666998316
C           91.57026169249006        2.44308718302016        0.48392393313917
N           91.32948535883551        1.14027598282254        0.15919677900109
C           92.83867448381932        3.03573689275438        0.61747498406489
C           92.88344462700292        4.40349481805820        0.96767970350233
C           92.93701117201324        5.57839634457085        1.26731138808836
C           93.01191124197490        6.94593082692332        1.61642998397327
C           91.85884710979100        7.70357527690449        1.85319765484287
C           91.99159064823274        9.03816813029587        2.19241140952802
N           93.16952283747327        9.64671515624231        2.30675642212140
C           94.27054897648742        8.93329713942904        2.08375158256753
C           94.24708828097199        7.59370754734567        1.73975099889459
C           94.07341299193045        2.38469745497840        0.43394658302251
C           95.36174570291196        3.00432581031949        0.57150433724486
C           96.29159148867815        2.04972849957383        0.31335806319127
C           95.57871913657830        0.83884884935677        0.01663244254752
N           94.23432860479762        1.07764092294468        0.09910982708985
H           97.25025944911899       -0.40218178234599       -0.32809185152513
H           97.22901201139064       -2.95244432612918       -0.97874068195667
H           95.28511748332335       -4.76554176026145       -1.40502344543366
H           90.35893385419664       -7.68754341211954       -2.01214281875072
H           90.33622834159232      -10.09592985133628       -2.63787539329852
H           94.43820053350628      -10.23765968485824       -2.85746773984337
H           94.64888450928051       -7.83623375213693       -2.24102085654526
H           89.98453971866854       -4.66142821708767       -1.27357107550769
H           88.13405085194168       -2.77699749421133       -0.76677750628734
H           88.26999718691576        2.36222818202893        0.50327823222773
H           90.22139191444587        4.16524144922763        0.93321898493910
H           90.87926698907226        7.24829705669214        1.77131833421562
H           91.11369761308833        9.64938654029830        2.38133789413858
H           95.21493147498369        9.46039164721740        2.18542162246458
H           95.16847051361390        7.05055777496384        1.56719820674787
H           95.52313512964196        4.03846819727956        0.83207201827406
H           97.36606813438355        2.14525254603179        0.32022453688307
C           53.20247253382010       -0.43009471359230       -0.25416489139770
C           51.97569137945579       -0.38862947694115       -0.22751315798173
C           50.63040456274074       -0.35368008661287       -0.20259135238791
C           49.40738768380722       -0.32806244638537       -0.18703149974306
C           54.54698901451887       -0.47604250938276       -0.29358293992852
C           55.76892353748855       -0.52412287511770       -0.33256230726968
C           69.27109935705373       -0.83929147516962       -0.55564614336546
C           68.04249533664648       -0.83574023135839       -0.56670471522081
C           66.69837437948905       -0.82935061409444       -0.56467888325042
C           65.47420268321480       -0.81529556620301       -0.55817090401572
C           70.61513024224836       -0.82952683089472       -0.54303463658761
C           71.83914683927341       -0.81273514780386       -0.52472234909880
C           85.32829752309240       -0.23910936634473       -0.12657773517362
C           84.10131057181481       -0.28309702948824       -0.14081477639876
C           82.75727589829030       -0.34113805446010       -0.16855527217460
C           81.53594093768722       -0.40525198809559       -0.20376093331672
C           86.67379725173603       -0.21670225755549       -0.12469084321319
C           87.89721534560266       -0.20804665299748       -0.13185482363407
Zn          60.62137379000266       -0.70201565892318       -0.46889296672093
C           57.17426298090296       -0.57867240005792       -0.37388508410000
C           57.81446149988982        0.11290365384415       -1.42090508048415
C           57.13962414958398        0.85784709038569       -2.44226021878415
C           58.09792574097770        1.37028454232000       -3.25786083997936
C           59.36280629654892        0.94188950585985       -2.73764149092356
N           59.16013681671295        0.18071466162153       -1.62439317272774
C           60.61334807675338        1.26535397165510       -3.29470774419799
C           60.61000944996417        2.06945327583113       -4.45653346612950
C           60.60958846767672        2.76022882515016       -5.45440863823354
C           60.60848953058369        3.56208222592568       -6.61843433728738
C           61.80314117446166        3.92294268342908       -7.25263989998817
C           61.74754166482722        4.70830772367786       -8.39013707097748
N           60.60670445668448        5.14382664773018       -8.91879867556260
C           59.46668168697532        4.80570959226936       -8.32141834241985
C           59.41288639602244        4.02478851393990       -7.18086527157573
C           61.86691329708555        0.86464104741240       -2.79876954674622
C           63.12922203921492        1.21613225656139       -3.37926738377045
C           64.09246626575285        0.64560673846592       -2.60915173886459
N           62.07625738623182        0.09037142015442       -1.69530019677254
C           63.42306312475113       -0.05882206786878       -1.55617293395438
C           64.06959039387908       -0.79187222435250       -0.54049562547781
C           63.42744438908977       -1.50266845663470        0.49382597232902
C           64.10186593817816       -2.25613505185313        1.50899041018256
C           63.14239859063862       -2.79284955582404        2.30758532337188
C           61.87754014423027       -2.36668871637763        1.78584171902268
N           62.08156413413355       -1.58634928722227        0.68551556723720
C           60.62654977873116       -2.70210225421308        2.33361645502046
C           60.62677976488660       -3.53824739571038        3.47257469470113
C           60.62402123936194       -4.26425125106219        4.44503897411643
C           60.61799646834659       -5.11731299422627        5.57205099175033
C           59.41889295405663       -5.51025567298502        6.17844589202118
C           59.46675264909702       -6.35137147498307        7.27565026312565
N           60.60420628067450       -6.81156336813668        7.79071444354902
C           61.74834021884919       -6.44237218574692        7.22028645003241
C           61.80991054542092       -5.60550804408256        6.12043310661264
C           59.37378823339539       -2.28317946010630        1.84987797408906
C           58.11195095912866       -2.62587043586924        2.43670392087233
C           57.14995279526440       -2.03024078629408        1.68442216661349
C           57.81943951530366       -1.32328664488223        0.63301160390362
N           59.16572070530972       -1.49243543385960        0.75849179982501
H           56.06982019353451        0.96938361613937       -2.51923973490475
H           57.96713813021934        1.98470096756150       -4.13445063034343
H           62.75476963458297        3.59035195012894       -6.85588526464821
H           62.65910437751667        5.00290923867869       -8.90214909956762
H           58.55446552685481        5.17785054957185       -8.77893170345929
H           58.46199890842108        3.77303245181630       -6.72701949205433
H           63.25505655294080        1.82244286658119       -4.26220202651332
H           65.16218583696239        0.69210281809015       -2.73725356876142
H           65.17209500554561       -2.35822167975770        1.59285827999807
H           63.27231615809908       -3.42034095829663        3.17498910900104
H           58.46995743023216       -5.15939317511902        5.79108610974506
H           58.55174431624162       -6.67205524851259        7.76542083057504
H           62.65758149158157       -6.83574339445997        7.66579229478978
H           62.76392120874495       -5.33050598166021        5.68701927927599
H           57.98574998279845       -3.24200024441008        3.31275846480700
H           56.08096570852995       -2.06311456927161        1.82230753825705
Zn          76.68933911901458       -0.65178669042915       -0.39308583415107
C           73.24338057717686       -0.78058950776776       -0.49630124830012
C           73.89048804428489       -0.03310431623097       -1.50116886566602
C           73.22243942272023        0.66705790734246       -2.55788638769869
C           74.18585628442453        1.25187121905204       -3.31700195538556
C           75.44662789869491        0.91532397811419       -2.72463201659760
N           75.23644243529036        0.13408535440888       -1.62616835903580
C           76.69955609601841        1.33664923667602       -3.20438789375685
C           76.70742751751145        2.13309436280811       -4.37142129796355
C           76.72077419363114        2.80690357666722       -5.38072542198696
C           76.73827913122504        3.58518318078007       -6.56051949510892
C           77.94213270347699        4.03881589054515       -7.11264895253116
C           77.90595477930394        4.79197225824868       -8.27245678408661
N           76.77557185496914        5.11134102220731       -8.89781357825483
C           75.62693914171462        4.68471851619765       -8.37880515317386
C           75.55377467854237        3.92672750959276       -7.22387847963719
C           77.94767458296863        1.03575316323445       -2.62945993315816
C           79.21125513377579        1.49370221294494       -3.12699088995108
C           80.16740170757555        0.99302154706396       -2.30163261738026
N           78.14892535967897        0.26930765273083       -1.51955160681720
C           79.49261319617545        0.22423236284054       -1.29810603474281
C           80.13216374668833       -0.47747165331970       -0.25720556733544
C           79.48824373607223       -1.25480173516113        0.72544766431679
C           80.15788737757111       -1.97644724806332        1.76666228745283
C           79.19712355409548       -2.59931215933537        2.49826952882792
C           77.93590244169489       -2.25862439919707        1.90892096303331
N           78.14325412114076       -1.44281873909993        0.83591918206021
C           76.68406189094634       -2.69966555755740        2.37502973655213
C           76.68330428212251       -3.55624673830285        3.49874782856167
C           76.68402250153902       -4.29992054083384        4.45780976525505
C           76.68588481903684       -5.17305017494141        5.56941643126128
C           75.49254614598874       -5.68202794022511        6.09540794209503
C           75.54965567708359       -6.53818760527834        7.18056354739192
N           76.69075756284285       -6.90715390177322        7.75718979904651
C           77.82949556342209       -6.42696718566376        7.26367872110051
C           77.88172416643930       -5.56558941969086        6.18247363822406
C           75.43371759319326       -2.36732518209344        1.82361596412808
C           74.16941762389644       -2.81524061571359        2.32825222195216
C           73.21042405541144       -2.27492423368114        1.53147269801726
C           73.88460569300788       -1.49810231055890        0.53391256294203
N           75.22981077599661       -1.57084303746247        0.73488237320463
H           72.15355476725732        0.70017444969641       -2.69659177734524
H           74.06112696431207        1.85953172937661       -4.19916835349630
H           78.88575190264996        3.80104982096323       -6.63651110255478
H           78.82493812857830        5.15616460741656       -8.72273473749252
H           74.72362987418457        4.96300700059283       -8.91410072964883
H           74.59644369873804        3.59965189798376       -6.83639878763699
H           79.34284427735074        2.11882229179696       -3.99584156289136
H           81.23577564340862        1.12617595527563       -2.36204292485889
H           81.22616125152018       -1.99991346804631        1.91199839939674
H           79.32376000667507       -3.23280974735136        3.36179235646651
H           74.54086959561913       -5.40804948465512        5.65622867275227
H           74.63924411238803       -6.94824524186001        7.60829328011922
H           78.74193872794694       -6.74807234684000        7.75794707916566
H           78.83159881237141       -5.19885929271602        5.81252122385983
H           74.03948519680718       -3.45893613805152        3.18370584731850
H           72.14073976382656       -2.39000260391012        1.60484552970667
