486
 energy: -746.904421749314 gnorm: 0.000661155428 xtb: 6.5.1 (b24c23e)
C           66.98004681299670       -0.15786693219473       -0.04608972625030
C           67.61044356451455       -1.39456764760861       -0.09859663021874
C           66.99064362256209       -2.67432848227417       -0.16940610985073
C           67.97787152865332       -3.61867368772115       -0.20876526145656
C           69.23210404362081       -2.94559852642485       -0.16202531989396
N           68.95996264662389       -1.60862617724898       -0.09576318057621
C           70.50324779392500       -3.52466091969005       -0.17788440165718
C           70.55516639107189       -5.01403418460704       -0.26237298914944
C           70.58132129955369       -5.64002647622151       -1.51185997392364
C           70.55596864593569       -4.81167604654200       -2.76879258647548
C           70.63561508741105       -7.02729472944540       -1.58027228416133
C           70.66559341466377       -7.79928181137052       -0.42363525786709
C           70.70752157758189       -9.30110773707723       -0.50952406963739
C           70.63771786683230       -7.16563845079900        0.81452467070611
C           70.58349567519770       -5.77985412212353        0.90664433987982
C           70.56065033099159       -5.10154552688263        2.25051058177727
C           71.71153901033081       -2.83227660059332       -0.12335502534927
C           73.00859560139118       -3.48460825931630       -0.13704355448566
C           73.93064905870062       -2.50181684687497       -0.07028379219146
N           71.86695221350897       -1.48111207560854       -0.05055400262906
C           73.19448764367449       -1.25293902620213       -0.01816327210953
C           73.82540213487646        0.00676844714086        0.04855719329513
C           73.16950332288324        1.25142047310660        0.09164731534815
C           73.78370112732341        2.53071964199747        0.15507982224649
C           72.79273432341353        3.47281107523078        0.17979845473310
C           71.54260171979423        2.79512500223986        0.13227637950150
N           71.82251372529150        1.45496445132242        0.08026265700860
C           70.27320416735935        3.37546351602163        0.13856974780282
C           70.22524413615845        4.86592225308336        0.19553027584749
C           70.24234644947649        5.60954920024798       -0.98798759031261
C           70.30433975425029        4.90584068615266       -2.31751482771213
C           70.20372303046561        6.99745612064682       -0.92370116740760
C           70.14963420323299        7.65510010007799        0.30087149951183
C           70.09016380870005        9.15772493538605        0.35686242261006
C           70.13065795385816        6.90495953715009        1.47216154114144
C           70.16846382682903        5.51610371636004        1.43162272003466
C           70.15070996555637        4.71174920936577        2.70414532120419
C           69.06325908868442        2.68019814720124        0.09602557710219
C           67.76021100361422        3.32617669676718        0.10780742179089
C           66.84404654757112        2.33789490102600        0.05881708185033
C           67.58722301132173        1.09022926241625        0.01525113275352
N           68.92027410290969        1.33463489713490        0.03959645151544
H           65.89516687529736       -0.17807516286726       -0.05785756010126
H           65.92472810484847       -2.83683769024129       -0.18784267128140
H           67.86062098252633       -4.68905085406780       -0.26433495629444
H           69.66290189870209       -0.87864787798028       -0.05216533275832
H           69.64031202406265       -4.21884100255629       -2.81400488094130
H           70.60523184227635       -5.44546628693753       -3.65369809782907
H           71.40136645304842       -4.12134694094768       -2.78459077043882
H           70.65834667355041       -7.51269379276471       -2.55051430333994
H           69.69148100882155       -9.70262520436936       -0.49928400108082
H           71.19076947156748       -9.62442936278638       -1.43175407336505
H           71.24690520439461       -9.72344271166861        0.33869929694848
H           70.66190793649899       -7.75990752549137        1.72214010440680
H           69.65823030556626       -4.49615250205602        2.35493061884344
H           70.58531114421476       -5.83402670381671        3.05675736248675
H           71.42125203349207       -4.43800090218078        2.35402297941164
H           73.16314533931782       -4.55032756402869       -0.19094242761199
H           75.00561083133307       -2.58575759823757       -0.05733911320302
H           74.84866512316478        2.69710530363098        0.17856622735076
H           72.90719913183590        4.54368477386985        0.22763391496664
H           71.12244779291964        0.72183837307165        0.03860409369765
H           70.26840579273042        5.62121221815936       -3.13856848564427
H           71.22751000499069        4.32845638284761       -2.39774812080763
H           69.46745216569941        4.21257381595395       -2.41922451564490
H           70.21823559387322        7.57437156141026       -1.84264709455348
H           70.54567624654581        9.53073082005962        1.27449149927835
H           69.04943613399253        9.48946611631508        0.33519867375567
H           70.60421000654229        9.59895789455450       -0.49740270171653
H           70.08815896562658        7.40936990960914        2.43198592003239
H           70.09786723515386        5.36334686854673        3.57581087637570
H           69.29003599646343        4.04045436412492        2.71598342181301
H           71.05188607443777        4.10005110559674        2.77873566525647
H           67.60122703200889        4.39207776463881        0.14813694980490
H           65.76787503193249        2.41321704570366        0.05042888014278
C          166.97347356725047        0.10163790496978       -0.02746214548849
C          166.34954849683834        1.33564944915036       -0.15990988988343
C          166.97615388513213        2.60766487899369       -0.28744481185883
C          165.99398127234033        3.55168203174063       -0.39766258993631
C          164.73618949273180        2.88609545347521       -0.34073075660065
N          165.00117421620803        1.55386319084142       -0.19622456255304
C          163.46816640691145        3.46718861074449       -0.41769326817361
C          163.42462985663022        4.95028459666162       -0.58080942950908
C          163.43078132973829        5.51162842187945       -1.86086497847100
C          163.48222364108790        4.61987830939307       -3.07281325175168
C          163.38414799774895        6.89374679840798       -2.00126484308521
C          163.33023768280501        7.72398354520970       -0.88655418179637
C          163.29697163374217        9.21955734455749       -1.05015982259136
C          163.32611895867726        7.15441435481427        0.38261323449630
C          163.37205943787308        5.77498641595618        0.54660746658653
C          163.36037962040174        5.16636962247037        1.92357696075499
C          162.25601693145006        2.78235937502433       -0.35471609414549
C          160.96242809441907        3.43611311578472       -0.44005949639863
C          160.03490008853134        2.46164105158835       -0.33670173503009
N          162.09317068957665        1.43836575276916       -0.20489193717616
C          160.76433673113212        1.21643861129883       -0.18960579592803
C          160.12657019847217       -0.03371938664797       -0.04854336406426
C          160.77622231257570       -1.27461704695595        0.09225905600662
C          160.15530675177635       -2.54474771947617        0.23007961314781
C          161.14147700620603       -3.48705192436624        0.32887495436930
C          162.39522624180296       -2.81856952106391        0.25490745638174
N          162.12225158573355       -1.48339383248046        0.11366671183813
C          163.66168972610481       -3.40244322886685        0.31350307052876
C          163.70168320988560       -4.88692890674831        0.46076532029546
C          163.69083156945527       -5.70033580152249       -0.67604179455908
C          163.64371004141103       -5.07767154337494       -2.04600116774526
C          163.72177382860411       -7.08199819596696       -0.52810767639474
C          163.76198686480132       -7.66504156679000        0.73423945326682
C          163.81315684814618       -9.16187172619325        0.88062388366699
C          163.77482589245074       -6.84591019989484        1.85841488845774
C          163.74456403678045       -5.46181939557191        1.73413663422119
C          163.75558766909700       -4.58245956523583        2.95610181729597
C          164.87537273748831       -2.71581431782260        0.24539430141737
C          166.17509368169445       -3.36496084576653        0.31368313221932
C          167.09645226664298       -2.38467979875949        0.22081675378284
C          166.35978497567058       -1.13885197392871        0.09397072150667
N          165.02540656450432       -1.37643597584511        0.11213288737014
H          168.05847054538779        0.11745071554463       -0.02101658927732
H          168.04291462967322        2.76551032341503       -0.29291204465523
H          166.11695208019498        4.61710196613943       -0.50856350121276
H          164.29436542769383        0.82963039105029       -0.12696573900603
H          164.39545779296509        4.02166437028636       -3.06511822806876
H          163.45794273906537        5.20768555553902       -3.98990988704559
H          162.63370051134251        3.93320508443124       -3.07404611635164
H          163.38647462889946        7.32901817303609       -2.99526338200137
H          164.31478161547284        9.61669055131974       -1.04666467822385
H          162.82797116639807        9.49693927722557       -1.99445797893022
H          162.74820424281643        9.68739961902739       -0.23240169835306
H          163.28315170817646        7.79434648156811        1.25790957149937
H          164.25826612543196        4.56564613182561        2.08076694140124
H          163.31837932782804        5.93924419350821        2.69043438884421
H          162.49562386511730        4.51042144857054        2.03999108531530
H          160.81372301761456        4.49698523972664       -0.56249479345052
H          158.96028609626882        2.54899240673599       -0.35544684447792
H          159.08938158819598       -2.70538635894647        0.24911878981452
H          161.02137839267641       -4.55218749378259        0.44382925814557
H          162.82621589094560       -0.75711862334285        0.03454281137925
H          163.68789895775114       -5.84104985618084       -2.82219756000663
H          162.72179430821831       -4.50617609602178       -2.17069357193468
H          164.48206234078268       -4.39174950656191       -2.18014365394858
H          163.71216813382486       -7.71309658157443       -1.41078999428225
H          163.35506412021141       -9.47659089673847        1.81856788488841
H          164.85204922777902       -9.50000643991507        0.87973178096556
H          163.29718134555029       -9.65080910568197        0.05391936028288
H          163.80644160500515       -7.29183364442959        2.84717584193726
H          163.79287902870075       -5.18079087247564        3.86592573846892
H          164.62227233064755       -3.91907936463813        2.93750348433993
H          162.85936393521766       -3.95966784226431        2.98332331817177
H          166.32852813407874       -4.42731294267513        0.41815189789142
H          168.17226972708946       -2.46444854131250        0.23272698607175
C           75.22930053681733        0.03478405411997        0.06724127460758
C           76.45386306916477        0.05230742404171        0.08215964828676
C           77.79585659877121        0.06347327494966        0.09028782035503
C           79.02669361697008        0.06231096151258        0.09509137087700
C           80.36396244105291        0.05698916570318        0.09302753422732
C           81.59483918098513        0.04987708989349        0.08329753545528
C           82.93653122524489        0.03704859795316        0.07148798803928
C           84.16128157448371        0.02108002137464        0.05445282926312
C           93.87218195149292        0.01968652141086        0.01430112539173
C           95.09742220788465        0.02962285142599        0.02446181512640
C           96.43833686394696        0.03474451837222        0.03286190136324
C           97.66970171342049        0.03596628732328        0.03669568829572
C           99.00599108374489        0.03461860785048        0.03802160871354
C          100.23723620984634        0.02803653520457        0.03681751497752
C          101.57808028804777        0.01826264563230        0.02917028296238
C          102.80332090492101        0.00766437614861        0.01734793355395
C          112.51094963848789        0.00624161626731       -0.00555813749448
C          113.73618743486213        0.01561397142975        0.00487727489735
C          115.07700124773952        0.01979285350351        0.01264944895197
C          116.30829492073974        0.01913380590262        0.02020171484213
C          117.64445707926843        0.01580437789651        0.02208110788828
C          118.87573813037748        0.00887634988656        0.02064104538982
C          120.21651758590819        0.00124082162739        0.01485159536376
C          121.44174039515512       -0.00776879693397        0.00422077349757
C          131.14915431024480        0.03630500416112        0.01951885887138
C          132.37435282029682        0.05012331816828        0.03229461570212
C          133.71516894274131        0.05765323941490        0.04654746397824
C          134.94649525760596        0.05933255789135        0.05363636979031
C          136.28275749982561        0.05719274729931        0.05641710611057
C          137.51402008436537        0.04716830547379        0.05334646330366
C          138.85482680688867        0.03190658886254        0.04446990290756
C          140.07993152516445        0.01438408127211        0.02902555462725
C          149.79044475689034       -0.10167945647510       -0.06328849821500
C          151.01550164581965       -0.10305456581901       -0.06113832632093
C          152.35711059475983       -0.10439985371559       -0.05859388644285
C          153.58806670857524       -0.10023456176648       -0.05458889286376
C          154.92515248932719       -0.09464305179982       -0.05218545872416
C          156.15609395440666       -0.08569122854330       -0.04954811365449
C          157.49792501517905       -0.07302366745070       -0.04812842285091
C          158.72267434335063       -0.05621751176591       -0.04853185403793
C           85.56436263600476        0.00430242894188        0.03399170291079
C           86.19764243517787       -0.93655623656451        0.86910859591490
C           85.56343768658571       -1.87755783609704        1.72146358564652
C           86.54062089175740       -2.60578473897153        2.34404871651865
C           87.79962550800363       -2.12639148262661        1.89048107000457
N           87.54149201703898       -1.11778352390728        1.00117049606198
C           89.06066024415014       -2.58781264870892        2.27850570092179
C           89.07694809305555       -3.71674795127756        3.25520229569055
C           89.04834344393853       -5.03585445005024        2.79282047156955
C           89.00187607900672       -5.31372652498271        1.31388490295627
C           89.06396488043903       -6.08102869644912        3.70848438518584
C           89.10658535139413       -5.83238361639858        5.07681148726562
C           89.14351823558671       -6.97547949802489        6.05475766003468
C           89.13553813657199       -4.51628387819982        5.52520285015172
C           89.12075589379765       -3.45495892236255        4.62733305085054
C           89.15208415997755       -2.03319448187685        5.12138946900040
C           90.28559760308168       -2.09127696142053        1.83971637858812
C           91.56538330503423       -2.60341038199117        2.29535532904781
C           92.51288008011915       -1.87527539136685        1.66853557009903
N           90.47592949257631       -1.07685566840444        0.95054057984713
C           91.80906973941242       -0.92602968606102        0.82821521198324
C           92.46994606713066        0.00636792568135        0.00149028880411
C           91.83632972254836        0.92893758146536       -0.85389385526859
C           92.47054412510850        1.86140658148577       -1.71553011123743
C           91.49319264653830        2.55124078924245       -2.38010938024146
C           90.23409860749639        2.06054499622612       -1.93887372429051
N           90.49257631304380        1.08216262330768       -1.01623193474006
C           88.97316387023804        2.49367766699495       -2.35773541005202
C           88.95814007751797        3.56750922549709       -3.39470528626029
C           88.98547580871769        3.22508890981139       -4.74962526925032
C           89.02702578407305        1.77692889328548       -5.15921412484523
C           88.97194571775421        4.23089612051786       -5.70900037675703
C           88.93081337803403        5.57098115442162       -5.33906465830442
C           88.93644534288794        6.65261746047729       -6.38522622535712
C           88.90426319594482        5.90000401691269       -3.98753246827276
C           88.91698667991805        4.91108169469546       -3.01104947068061
C           88.88365952513685        5.27559203170503       -1.55074578420558
C           87.74805486317834        2.01739614571896       -1.89655434600323
C           86.46828903420452        2.52383093346786       -2.35848960159295
C           85.52098356209613        1.83819037288370       -1.68514827184135
C           86.22470420633537        0.91149071502005       -0.82000165225008
N           87.55819274035599        1.04092684046687       -0.96630346015925
H           84.49614470675887       -1.97799674505963        1.83568090034162
H           86.40946011501816       -3.40384858315179        3.05675954025884
H           88.25032558895188       -0.58357907010736        0.50991155329521
H           88.09234323690906       -4.89560445601815        0.87806643533093
H           89.85467787361185       -4.85076765726623        0.81409335807227
H           89.02103864219325       -6.38546794787355        1.11857969688961
H           89.04169500622822       -7.10487409501316        3.34970072332971
H           88.77090030231315       -6.66539347441269        7.03113479198516
H           88.54198975993573       -7.81137256007325        5.69625255298352
H           90.17084614159627       -7.32631060543411        6.17753126239023
H           89.16903568152951       -4.31240716795539        6.59044965473096
H           88.26651559950126       -1.49337439425340        4.78057377257285
H           89.18395908757512       -2.00015640050773        6.20997665954181
H           90.02968718239200       -1.51554198420917        4.72968832786491
H           91.69220326297896       -3.40973631976612        2.99980810595711
H           93.58550535513764       -1.95402429630146        1.74613158107489
H           93.53791896746583        1.98022346427630       -1.80958947853118
H           91.62431621682192        3.33322311090320       -3.11043633877826
H           89.78378041947265        0.54649988660878       -0.52651653349134
H           88.99807894952683        1.67842789923514       -6.24392893208530
H           88.17781428130905        1.23809908746336       -4.73513486553971
H           89.93976562959320        1.30491032289302       -4.79018930970624
H           88.99155373941070        3.96440400765185       -6.76069066707341
H           88.51521517539749        6.28936851045037       -7.32281621758854
H           89.96135377542691        6.97912981768235       -6.57651825090345
H           88.36265171466503        7.51774808356277       -6.05181894480629
H           88.87122598172215        6.94294457401377       -3.68979621872582
H           89.75896886916442        4.87181364764891       -1.03842280513866
H           88.86990906223251        6.35717400399519       -1.41989230145854
H           87.99541103951677        4.85453188933930       -1.07595991814823
H           86.34137760046781        3.29899833999622       -3.09707715706563
H           84.44842526428361        1.92776052780048       -1.75094405012512
C          104.20553032472810       -0.00611821190636        0.00277561637094
C          104.83744424776677       -0.93716553922353        0.85042470434571
C          104.20119271220481       -1.86912864588016        1.71099409303052
C          105.17689367830930       -2.59222305948572        2.34201212752313
C          106.43679290595756       -2.11887019704366        1.88498861809134
N          106.18074848476360       -1.11796337417688        0.98620612012755
C          107.69700587791526       -2.58012172884665        2.27581674049473
C          107.71143217530489       -3.70115435795254        3.26152723607985
C          107.67038568137826       -5.02386272797244        2.81049553044107
C          107.61370836739370       -5.31400736063488        1.33426660216451
C          107.68323965462629       -6.06135175903384        3.73490616027218
C          107.73528658210373       -5.80153098925116        5.10083195086397
C          107.76832765819177       -6.93660494105735        6.08820318747679
C          107.77715978663144       -4.48196551181157        5.53785431812571
C          107.76543940336572       -3.42816976779087        4.63112581996895
C          107.81111384741671       -2.00261154621063        5.11296037140858
C          108.92246832354519       -2.08991815607152        1.83145295471809
C          110.20173081093887       -2.60355554135546        2.28659209731945
C          111.14986019241543       -1.88105496557159        1.65419218695901
N          109.11358262293086       -1.08026088454824        0.93698262671861
C          110.44685659298020       -0.93319895306002        0.81167056840010
C          111.10877677245843       -0.00350990512338       -0.01725683374278
C          110.47694644674526        0.91994263400988       -0.87316091526468
C          111.11322585413679        1.85328775452541       -1.73221404637985
C          110.13742140663940        2.54460901752773       -2.39770135216412
C          108.87745156428814        2.05307924675815       -1.96038968132665
N          109.13359187295138        1.07361883705950       -1.03830967385524
C          107.61723309859168        2.48428088829563       -2.38399484921207
C          107.60385105948626        3.56037414498431       -3.41860723625047
C          107.64132669644152        3.22200986751985       -4.77427361814876
C          107.69316259608588        1.77528572539314       -5.18774204143065
C          107.62813523869103        4.23050610811421       -5.73086343887740
C          107.57747847601208        5.56927212119591       -5.35741290537042
C          107.58296197385408        6.65408203234344       -6.40027693440703
C          107.54133621746048        5.89426768546611       -4.00511646116954
C          107.55346058029788        4.90265379391920       -3.03139574957599
C          107.50977821044347        5.26294097935928       -1.57031973087510
C          106.39168098905536        2.00387435499833       -1.92910630491087
C          105.11240317185926        2.50328582336460       -2.39968940712001
C          104.16434148114607        1.81540807114700       -1.72965202197863
C          104.86733950437279        0.89539132281726       -0.85682089754258
N          106.20064682790840        1.02913199594864       -0.99671068700853
H          103.13366067001580       -1.96748056442044        1.82475396107981
H          105.04399179385507       -3.38305620525672        3.06241229545020
H          106.89098740832696       -0.58947154722662        0.49081319344670
H          106.70123219197303       -4.89934303840818        0.90126987401925
H          108.46311183084244       -4.85549548975313        0.82471859139449
H          107.63114815394503       -6.38735470519251        1.14782064316393
H          107.65123504543743       -7.08798435022789        3.38493693936572
H          107.40527305066374       -6.61480468700794        7.06438946246854
H          107.15658099728230       -7.76980703853576        5.74088878451034
H          108.79314059905427       -7.29603343792782        6.20700689904417
H          107.81832285888392       -4.26935524992867        6.60112027368648
H          106.93198564726096       -1.45618823385355        4.76613575659029
H          107.84197147552203       -1.96054216928961        6.20126154793038
H          108.69488122085117       -1.49789762884245        4.71818340522544
H          110.32782184958761       -3.40727657854742        2.99414269897520
H          112.22242421028665       -1.96254798074166        1.72970769692301
H          112.18081736065440        1.97208669409964       -1.82372885395370
H          110.27028621770887        3.32784985439699       -3.12635775416804
H          108.42337122631405        0.53793161197586       -0.55068369799595
H          107.66938872270069        1.67971118175308       -6.27284170215256
H          106.84544334362629        1.23017823245100       -4.76874353121791
H          108.60718851077885        1.30770221285407       -4.81624985320460
H          107.65542238343834        3.96711390878484       -6.78315948730792
H          107.17319109485312        6.29010932933386       -7.34264213154481
H          108.60659912301837        6.99019249060193       -6.58144623687427
H          106.99868176578742        7.51312588352972       -6.06932001830842
H          107.50104608601477        6.93616289978878       -3.70463018158810
H          108.38376583826863        4.86155807058153       -1.05388041312202
H          107.49052908482867        6.34408684418752       -1.43660070652589
H          106.62055189478320        4.83674977274786       -1.10199770618149
H          104.98625397696593        3.27538537509713       -3.14160851647954
H          103.09178895818221        1.90008750898920       -1.80174771587987
C          122.84391833711742       -0.01727082146463       -0.00686347894072
C          123.47674079727815       -0.94672737883107        0.84177839357212
C          122.84144179966655       -1.88240928215624        1.69900473705628
C          123.81802472977519       -2.60181441321441        2.33282959394765
C          125.07750129234115       -2.12222939207450        1.88107933515438
N          124.82029322389570       -1.12172505697184        0.98218251528010
C          126.33827610757355       -2.57753375777098        2.27690500355787
C          126.35316740163316       -3.69832555190872        3.26288763171884
C          126.31877712295562       -5.02140884508647        2.81239088422172
C          126.26947586448036       -5.31254974608486        1.33609254373389
C          126.33042226682359       -6.05832862775459        3.73744085926162
C          126.37458488379023       -5.79759072148141        5.10350043070695
C          126.40568217842635       -6.93218524620452        6.09148720505172
C          126.40985399964794       -4.47768493537297        5.53997943281506
C          126.39917710091075       -3.42442815827525        4.63259353250052
C          126.43744793727814       -1.99847275371742        5.11389409532299
C          127.56322678561619       -2.08081027385524        1.83824654137274
C          128.84305380438661       -2.58826216240104        2.29859244557753
C          129.79026942133106       -1.86006412234148        1.67133012711264
N          127.75311973756472       -1.06922431888790        0.94570584614156
C          129.08621481377116       -0.91486415911445        0.82670214440155
C          129.74702480364843        0.01923985000461        0.00179100319053
C          129.11419198623386        0.93980491628600       -0.85653206305968
C          129.74941209154659        1.87663546851020       -1.71256060505067
C          128.77301479462778        2.56287904919948       -2.38246763780984
C          127.51369825995570        2.06466160681132       -1.95097888795186
N          127.77078307473289        1.08641459311973       -1.02787503822058
C          126.25306756503510        2.48947709165259       -2.37991198235463
C          126.23764838695141        3.56569074229729       -3.41436355568332
C          126.28054665812286        3.22771450312949       -4.76996681437969
C          126.34071123544950        1.78131051762110       -5.18342279187383
C          126.26401051994439        4.23623174143262       -5.72647518999464
C          126.20448176587895        5.57463315355080       -5.35300603362852
C          126.20601256979107        6.65955141293441       -6.39576954037542
C          126.16274947690343        5.89923676669189       -4.00078127107859
C          126.17806352289878        4.90758755900535       -3.02713710956043
C          126.12772238333055        5.26740291077942       -1.56615768864702
C          125.02812003772105        2.00294586481049       -1.93009619000304
C          123.74833410243501        2.49677676075058       -2.40526462168389
C          122.80092538345177        1.80465923232419       -1.73872607290390
C          123.50488151676309        0.88740247360055       -0.86375863194437
N          124.83802278555876        1.02699161892368       -0.99876275080310
H          121.77394222645270       -1.98565986228674        1.80865158027098
H          123.68595987674586       -3.39399553287174        3.05189666335945
H          125.52995649745310       -0.58930743474978        0.49018210994970
H          125.35466767513250       -4.90609930720229        0.90017594661636
H          127.11632924739997       -4.84676679260458        0.82894776593447
H          126.29679756431132       -6.38577614015007        1.15012023004466
H          126.30343708531261       -7.08526490595961        3.38793544528324
H          126.04501290387594       -6.60879595532827        7.06802265943672
H          125.79078948525573       -7.76363695754326        5.74547252095369
H          127.42950368322838       -7.29485476703725        6.20887313268804
H          126.44464042898815       -4.26430851713609        6.60331875118069
H          125.56239130521456       -1.45297749367695        4.75556251061786
H          126.45460935562940       -1.95556597814224        6.20246474304119
H          127.32578028885733       -1.49337340881921        4.72994043811053
H          128.97007411075120       -3.39221556623649        3.00571887280696
H          130.86288583438369       -1.93608678173165        1.75161744699353
H          130.81676796641659        2.00109394314694       -1.79920619804047
H          128.90504940466300        3.34686622259463       -3.11047782382201
H          127.06116304064403        0.54686546433824       -0.54363904471458
H          126.32409499589529        1.68590041341807       -6.26866913834111
H          125.49233323548711        1.23297518966234       -4.76995423961884
H          127.25404011806904        1.31701761034198       -4.80619584542553
H          126.29538979409581        3.97313537335930       -6.77873126478677
H          125.79961481440435        6.29353312872869       -7.33880653135679
H          127.22817984122528        7.00095828537313       -6.57531325433738
H          125.61676438059179        7.51552969846764       -6.06567988266934
H          126.11517732522211        6.94082401379923       -3.70029296445467
H          127.00572023423378        4.87663506401925       -1.04835773925102
H          126.09527619221544        6.34824528262888       -1.43255173627517
H          125.24301060562142        4.83053892870677       -1.09915662723065
H          123.62140795489326        3.26851712672704       -3.14741721441000
H          121.72827656280388        1.88464418747368       -1.81462363500195
C          141.48189829298627       -0.01176326629549        0.00898963359740
C          142.10901066932087       -0.95266704924066        0.84913213745619
C          141.46849786077942       -1.87942224784838        1.71224401354728
C          142.44048268724433       -2.61503018864123        2.33425611389882
C          143.70246522367094       -2.15559196888511        1.86835132960119
N          143.45111024014858       -1.14933192275260        0.97414522139970
C          144.95966074258956       -2.63462053886896        2.24664360828825
C          144.96627971585957       -3.75548337787869        3.23268547389115
C          144.90012466132160       -5.07785178344930        2.78376901042973
C          144.82657156821415       -5.36873792285503        1.30842953117996
C          144.90283723187633       -6.11428457694261        3.70949128444341
C          144.96918081857274       -5.85365400624477        5.07463643440659
C          144.98975011672573       -6.98774513766142        6.06348706803110
C          145.03643110034031       -4.53443219324781        5.50954484695053
C          145.03523805937203       -3.48174492944832        4.60149452205144
C          145.10788277898197       -2.05653094326094        5.08103000444718
C          146.18813098090308       -2.16200708478017        1.79077460976272
C          147.46383654912631       -2.69763789282934        2.23041028561128
C          148.41666905172710       -1.98753045653974        1.59103029309782
N          146.38567910236159       -1.15201268308423        0.89859994289099
C          147.72015455006283       -1.02436284788791        0.76064939823819
C          148.38735173120412       -0.09614954441238       -0.06508364169758
C          147.76020486280217        0.84441790167417       -0.90540562568799
C          148.40079705919402        1.77787282274725       -1.76121372930047
C          147.42819237278241        2.48687188243386       -2.41256093664515
C          146.16580764848931        2.00669987206664       -1.96948205853623
N          146.41732955848732        1.01625209358843       -1.05809908252392
C          144.90772144317950        2.45582580769853       -2.38092583054064
C          144.89914681122946        3.53834386513239       -3.40892672490992
C          144.91707797993740        3.20711919629674       -4.76673836126075
C          144.94455360395878        1.76213710669333       -5.18854587522667
C          144.90643415434718        4.22102936976588       -5.71765680856557
C          144.87737199586306        5.55816701899505       -5.33636100241549
C          144.88432738919224        6.64900717758465       -6.37292398775729
C          144.86088450099294        5.87607004989883       -3.98193723633293
C          144.87085617175958        4.87897440038819       -3.01384056121028
C          144.84850761258204        5.23149017146712       -1.55038757896622
C          143.67957454219791        1.98650422870317       -1.92172276535299
C          142.40330249078013        2.50368012401511       -2.38150816752677
C          141.45129370399079        1.82157552117933       -1.71123993823842
C          142.14881306158608        0.88774533469303       -0.84871129241001
N          143.48267443005756        1.00758931715832       -0.99493709140711
H          140.40079124013155       -1.96561241699795        1.83396738318830
H          142.30380746993279       -3.40595656460304        3.05384458658359
H          144.16335612296874       -0.62768049365610        0.47441714922626
H          143.91564607966703       -4.94271676157612        0.88322183332149
H          145.67718311712380       -4.92176578260885        0.79074395154734
H          144.82834154367819       -6.44240899868734        1.12303076484620
H          144.85098509089215       -7.14067733801658        3.36119281884332
H          144.63725330812696       -6.65878540974906        7.04116571288774
H          144.36289133031732       -7.81160007663161        5.72085569929738
H          146.00935856144005       -7.36323723056392        6.17723095331011
H          145.08885227218272       -4.32120996759870        6.57219445165433
H          144.23853948994886       -1.49441741654684        4.73465860215852
H          145.14126505044760       -2.01333975326923        6.16921537361410
H          146.00027006095289       -1.56891910393212        4.68410530253454
H          147.58449513436022       -3.50637697473038        2.93318904069945
H          149.48855182549369       -2.08620034272501        1.65489859131993
H          149.46897561477155        1.88440065270737       -1.86061670768523
H          147.56468438976478        3.27479566033904       -3.13548282397350
H          145.70479182338866        0.48457929999310       -0.56946064413180
H          144.91501185043245        1.67307002111063       -6.27405582106286
H          144.08979946386506        1.22824479927398       -4.76933143060125
H          145.85234615262672        1.27795532034844       -4.82315155999132
H          144.91834368713842        3.96312968291856       -6.77159913622564
H          144.47483542469791        6.29095687860804       -7.31765576826955
H          145.90821241890359        6.98580917400162       -6.55129707343799
H          144.30028042746773        7.50638717186277       -6.03715126425490
H          144.83749650441931        6.91673510771982       -3.67544081118890
H          145.72885450441311        4.82529189052712       -1.04865723043169
H          144.83397280099180        6.31194529850619       -1.41060195257334
H          143.96507856909906        4.80482952929344       -1.07171150072585
H          142.28167660998011        3.28261979013588       -3.11700362165142
H          140.37936043132208        1.91877417841773       -1.77658817553306
