134
 energy: -256.566756624034 gnorm: 0.000627867080 xtb: 6.5.1 (b24c23e)
C            9.03123228938391       -0.43367514873490        0.19649082418740
C            9.64701889210707       -1.15981793364545       -0.81473523626048
C            9.00454423946126       -1.95884744816353       -1.80175731066284
C            9.97123568233917       -2.49160560747377       -2.60730468678120
C           11.23703839748989       -2.04871257694477       -2.12797218206581
N           10.98956334828233       -1.24015082654677       -1.05483846186740
C           12.50458790274343       -2.35641448840459       -2.63482584005813
C           12.55681886816929       -3.26324782091215       -3.80866371504128
C           13.12228029003693       -2.81017721133159       -5.00396694586294
C           13.16808565045858       -3.65090205743529       -6.10873038701315
O           13.69822111495060       -3.27346442791186       -7.31452815767333
C           12.65974505953179       -4.94479984908856       -6.02694993412596
O           12.69566715630758       -5.79535556643066       -7.10057293683296
C           12.09938821895087       -5.39999888813326       -4.83235006896211
O           11.61239239917927       -6.66290671358856       -4.76166645023267
C           12.04437927065370       -4.55811433748644       -3.72743752652534
C           13.71054683822259       -1.87714769187755       -2.11716766882219
C           15.01691184843091       -2.29647886855442       -2.59157481925682
C           15.92557686666154       -1.63501852907455       -1.84513162685392
N           13.84866325025853       -0.98798618678864       -1.09499466475110
C           15.17352519834249       -0.81346150329434       -0.91682924325099
C           15.79540207579180        0.05117428261779        0.00807755531775
C           15.14372643360589        0.87613061313472        0.94482272306678
C           15.76645519995394        1.80538113298916        1.81939229940149
C           14.78841193809119        2.40666547246793        2.56227804054694
C           13.53793020135803        1.84970657896363        2.17521895796875
N           13.80407520901484        0.93898888143822        1.18622700257559
C           12.27151005938518        2.15847438057920        2.68317434191340
C           12.20664475025258        3.16982309012605        3.76649976427773
C           12.88135073476358        2.96525582360875        4.97045210395699
C           12.81169356510684        3.91854448418488        5.97986371205640
O           13.45730714121809        3.72549890761345        7.15578813423323
C           12.07154629613914        5.08584627959970        5.78508446185294
O           12.02446483234265        6.00940329740477        6.79608412997957
C           11.39987699456798        5.29114645944023        4.58258575417398
O           10.69719216334714        6.46149713233454        4.46276972333869
C           11.46167962975799        4.33731534211481        3.57482270332412
C           11.07317917013830        1.58416508060272        2.24318505203263
C            9.77461884115242        1.83870232941882        2.84754705944511
C            8.87963952859941        1.10585665528328        2.15455516958271
C            9.63019056785619        0.40138510401153        1.13056859251369
N           10.94884492662720        0.70342095878013        1.22245739075682
H            7.95106736887928       -0.52681538697630        0.24837197114604
H            7.93744016754725       -2.09308184653935       -1.88004621657450
H            9.82562739850778       -3.13196754036584       -3.46202041295660
H           11.70885724082602       -0.76758946282698       -0.51761108717128
H           13.50852327272869       -1.80036078503907       -5.07775635236275
H           14.03432799455247       -2.36852420688221       -7.27378359002436
H           13.11831404731865       -5.32735100060602       -7.83825730354420
H           11.74760040929661       -7.09054363697287       -5.62342500764586
H           11.62355456203067       -4.92875605543750       -2.80167872150468
H           15.19373429384607       -3.01611568021554       -3.37449105355508
H           17.00142936343122       -1.68556402397839       -1.89549546090611
H           16.82781145322180        1.99015972484962        1.86038078187169
H           14.91855926634555        3.17307648821194        3.30867661892569
H           13.09456456539610        0.39558260917167        0.70556791937547
H           13.44297234362566        2.05596996282855        5.14150814288914
H           13.28696498114460        4.49248823568271        7.72714249917444
H           11.47267253049295        6.75016385375097        6.49842559418782
H           10.26136306873138        6.51375861990863        3.60206585230101
H           10.94825985931898        4.51047181347728        2.63630703692503
H            9.59844891538351        2.47810595568699        3.69766483397307
H            7.81404147925643        1.02489221808376        2.30234839909006
C           34.29872411592613       -0.30688339382547        0.37545310799160
C           33.68236949053787        0.49364782485597        1.32852226935645
C           34.32429346579026        1.25008225807974        2.34886543822418
C           33.35748746741871        1.90045904819213        3.06264903843573
C           32.09202284539157        1.54877290136027        2.51201340145062
N           32.33999906521252        0.70945860455100        1.46286227005772
C           30.82441141145617        1.96574524877994        2.93369749015573
C           30.77198099519481        2.87577241820079        4.10490332102278
C           30.20413933769334        4.14545954450114        3.96593254516460
C           30.15853885372703        5.00493236486240        5.05617749380076
O           29.62561365860519        6.26567101911656        4.99305186841606
C           30.67015952007064        4.60358338725202        6.28761434740401
O           30.63504929012723        5.43072078684621        7.37938639105706
C           31.23307937606495        3.33415679272456        6.42888294550041
O           31.72351838707795        2.95124900261437        7.63302111544522
C           31.28710474239326        2.47455408399150        5.33769006039886
C           29.61881020466780        1.58642884558989        2.33792238361827
C           28.31198054057434        1.94342274626743        2.85971338845010
C           27.40399673340541        1.38702994451657        2.03120860398628
N           29.48153093896979        0.81838896770010        1.22177111556717
C           28.15683830182006        0.69146746056619        1.00574889123794
C           27.53570729815466        0.01118250646613       -0.06253126637505
C           28.18814332435042       -0.69115585440167       -1.09389338038282
C           27.56684959207462       -1.30630452960198       -2.21269996240252
C           28.54566743593312       -1.87796662859223       -2.97763640356528
C           29.79510040882259       -1.64337151626609       -2.33922567436256
N           29.52776206137586       -0.91110095273726       -1.21205201356460
C           31.06150939070024       -2.06129840150782       -2.76168732445826
C           31.12701103770157       -2.85963729942299       -4.01042497207941
C           30.45466296933828       -4.07800414230363       -4.11008968307227
C           30.52478202392838       -4.81932409281912       -5.28400112319970
O           29.88187875695568       -6.00790553507558       -5.38791761794973
C           31.26243413643700       -4.33922218822312       -6.36738312538327
O           31.30963877406618       -5.08922748489877       -7.51307882745025
C           31.93148551065768       -3.12187870931597       -6.26877248548960
O           32.63137438259838       -2.71359146936879       -7.37389725523501
C           31.86984905192824       -2.38261684370814       -5.09448433662089
C           32.25899082925576       -1.78092664981306       -2.09347787503771
C           33.55715990706159       -2.30555233413440       -2.48817371043676
C           34.45133744994016       -1.81975626060955       -1.60345299695609
C           33.70067990797823       -1.00212445789197       -0.66738063255105
N           32.38273252252207       -1.01234631542251       -0.98578385961112
H           35.37850573196364       -0.38284563962765        0.45557957236657
H           35.39115300420137        1.29023231194165        2.50070278617711
H           33.50300463655342        2.56956558283738        3.89505491605781
H           31.62122834600815        0.30795689498672        0.87001045490701
H           29.81599810114441        4.46882037613391        3.00721646367567
H           29.28688432200976        6.45142576706558        4.10744425998988
H           30.21005285711186        6.26102033038489        7.11140078823742
H           31.58889400477520        3.67885436812644        8.26249992572362
H           31.70942484223629        1.48611817369035        5.46475006641682
H           28.13406935416506        2.52228048515484        3.75154351552174
H           26.32809341718050        1.42536043042884        2.09048660303107
H           26.50592998062245       -1.29832885005769       -2.40424289975245
H           28.41687451775958       -2.41061628928248       -3.90561845435225
H           30.23628468151312       -0.58210304522099       -0.56439160281044
H           29.89445125560492       -4.47008732414803       -3.27109479887851
H           30.05224498004537       -6.37087909207835       -6.27276553912330
H           31.85839967429023       -4.61506284701164       -8.15792286039446
H           33.06439127659670       -1.86519797323813       -7.21201782582131
H           32.38159640277492       -1.42956850570699       -5.02966960397919
H           33.73337970061802       -2.96922838260434       -3.31948089665377
H           35.51643321956623       -1.98570953852234       -1.55952721640547
C           17.19942327477124        0.10710673042469       -0.00668219341434
C           18.42408838711682        0.12673875729676       -0.02867725470502
C           19.76618498530341        0.13630284203448       -0.05405465203652
C           20.99683638960423        0.12526064365201       -0.08338761290806
C           22.33413313983984        0.10791154290335       -0.10921158613866
C           23.56483226671774        0.08377366445453       -0.12939109343905
C           24.90707384894944        0.06461904469546       -0.12787200287724
C           26.13169026421031        0.03834638357104       -0.11377129622494
