119
 energy: -220.982240614014 gnorm: 0.000344250855 xtb: 6.5.1 (b24c23e)
Cu          13.55741974433754       -0.01941939896300       -0.01566714680921
C           10.13268216135675       -0.03537501524902       -0.04625318211883
C           10.77386024308114       -0.90749972151139       -0.91448037100057
C           10.11240999783122       -1.80940562409826       -1.81734755784233
C           11.08164332636231       -2.48286806724492       -2.48546935940033
C           12.34296596593204       -1.99771184909967       -1.99653639206877
N           12.12537572144950       -1.04398703483952       -1.04526645225912
C           13.58731283182926       -2.43347131810835       -2.42906736627178
C           14.81950891387258       -1.98361025427152       -1.97904047453600
C           16.08873447138690       -2.45646201469284       -2.45293565029005
C           17.04417583014720       -1.77392920255386       -1.77202790185518
N           15.02021217141032       -1.02585206934196       -1.02137800597249
C           16.36449788575966       -0.88137726213788       -0.87810111423124
C           17.00534694291882        0.00333242310974        0.00843035051104
C           16.34110590654621        0.87734755084489        0.88812939829817
C           16.99634144816200        1.77543635560595        1.79462396087090
C           16.02246670256560        2.44139773019965        2.46581688692172
C           14.76633122310507        1.95409039345361        1.97199683539968
N           14.99310450082872        1.00301387450682        1.01355703143456
C           13.52202291000060        2.38804260006389        2.40407682799203
C           12.28973171532226        1.94177776436163        1.94831712991444
C           11.01541256758192        2.41488684665250        2.41488768303777
C           10.06456003718191        1.73539646038357        1.72676475584925
C           10.75034287978196        0.84127946034957        0.83437712817870
N           12.09799724329333        0.98893201825727        0.99059833834894
H            9.04766013151229       -0.03983391390040       -0.05635851881002
H            9.04209476902916       -1.90301493232399       -1.91506134844703
H           10.96937344733237       -3.24211467055570       -3.24364110169586
H           13.59808247192428       -3.20133542494010       -3.19589218996862
H           16.21790958870455       -3.21373578902769       -3.21014739700434
H           18.11588579462002       -1.85824333056647       -1.85785233783716
H           18.06555882766938        1.87390409681659        1.89534275100841
H           16.13095120051733        3.19657067083531        3.22836544754803
H           13.51179189735793        3.15289463889433        3.17391600163398
H           10.88254787863101        3.17115126281687        3.17270714281091
H            8.99184842693670        1.81994639880107        1.80443265953880
Cu          45.71633284069708        0.00538188890934       -0.00999632151431
C           49.14082148423621        0.03903988047579        0.01413678536044
C           48.49968343126709        1.26808615861407       -0.04806621360340
C           49.16124740323315        2.54304013532614       -0.10284171513300
C           48.19214617710566        3.49051207593751       -0.15202369771515
C           46.93072017015171        2.80227083103575       -0.12731965532749
N           47.14819806488273        1.45663118863118       -0.06522331890032
C           45.68651386989987        3.41564033738979       -0.15874989274873
C           44.45425078878216        2.77983022288142       -0.13365755579304
C           43.18498309214300        3.44867329670107       -0.16471897534233
C           42.22950296144438        2.48547499045434       -0.12607289613821
N           44.25359084658358        1.42679187014816       -0.07661863215310
C           42.90910532676657        1.22327154709135       -0.07172123370102
C           42.26888929931542       -0.02824698027860       -0.02763527996675
C           42.93283432199271       -1.26707720404825        0.02054058558567
C           42.27742000291864       -2.54236586860882        0.06534068203561
C           43.25106216047927       -3.48687669082850        0.11147094098684
C           44.50732491804300       -2.79337136254892        0.09503022065448
N           44.28093446977037       -1.44440163826014        0.03816307439484
C           45.75142456649418       -3.40498295664607        0.13418337783925
C           46.98367146685882       -2.76727535617838        0.12071908632050
C           48.25790915448675       -3.43060583692476        0.16331934595824
C           49.20879219442429       -2.46418251740556        0.12984042828729
C           48.52315310575325       -1.20241999605227        0.06644260592116
N           47.17553053421070       -1.41753527006657        0.06341056156188
H           50.22581542623735        0.04974112918079        0.02228537271642
H           50.23156590006652        2.67833441401728       -0.10278346516008
H           48.30451095465609        4.56238121039259       -0.20054962669793
H           45.67585114667533        4.49976552198053       -0.20668921048526
H           43.05590661689853        4.51861993513249       -0.21037222510818
H           41.15780044102341        2.60563070624894       -0.13381845570409
H           41.20820579104848       -2.68320665470529        0.06202991700689
H           43.14242857098791       -4.55923529762410        0.15359933841801
H           45.76142508574278       -4.48919556716774        0.18024840530436
H           48.39065060422189       -4.50011655544264        0.21238568600664
H           50.28144839538966       -2.57838348798890        0.14576969371604
C           22.20797753195633        0.01887671756406        0.02110302621956
C           20.97979729969890        0.02088113449178        0.02238241376301
C           19.63485198691165        0.01943856116071        0.02062575357115
C           18.41113545346030        0.01306780976881        0.01505411687623
C           23.55278889454370        0.01421883524887        0.01820430817452
C           24.77671523093654        0.00662953675717        0.01278389102001
C           38.29328028546004       -0.05400929758847       -0.03406737898738
C           37.06534854545447       -0.05635673064215       -0.03363459343019
C           35.71988876164735       -0.05547010402192       -0.03141589828334
C           34.49629308150865       -0.05238083461040       -0.02747266861789
C           39.63887565528831       -0.04781995767096       -0.03333463896084
C           40.86227061374419       -0.04104171017463       -0.03184858732177
Cu          29.63620759728343       -0.02334090561368       -0.00751483390960
C           26.18188869849619       -0.00137968292736        0.00650670068246
C           26.84442316942590        0.92648216759461        0.83161281940394
C           26.18754269415259        1.88016837510501        1.67812523654736
C           27.16063066604939        2.59051372605684        2.30389804089579
C           28.41694391865099        2.07372140282848        1.84236523688108
N           28.19161764018047        1.06180730101859        0.94869747486020
C           29.66160983258618        2.53634670422123        2.24302302148526
C           30.89702563601190        2.06639179264700        1.82246780594872
C           32.16353851459073        2.57655996470452        2.26309585908887
C           33.12239584976626        1.85535893239427        1.62793981470843
N           31.10206859095081        1.04880308190741        0.93057479919501
C           32.44660954869041        0.90095625144594        0.79713443213938
C           33.09032428357333       -0.04501915514140       -0.02174385083775
C           32.42826853939982       -0.98320960247040       -0.83478248803850
C           33.08516835768632       -1.94628895971534       -1.67066459603421
C           32.11210692084740       -2.65596181114915       -2.29718996982749
C           30.85575235838348       -2.12923669832847       -1.84698804415782
N           31.08090034925158       -1.11410258416923       -0.95718551460460
C           29.61106183878943       -2.58294835632986       -2.25799476308562
C           28.37564390607334       -2.10396163603780       -1.84801443500766
C           27.10918387015042       -2.60397879912796       -2.30019356284061
C           26.15027041524161       -1.88170215168457       -1.66624775208400
C           26.82597704803095       -0.93709697844899       -0.82437307487347
N           28.17036729361239       -1.08959925232784       -0.95224748280052
H           25.11819439326791        1.98333750394368        1.77254443634967
H           27.05096261081438        3.39393323815828        3.01524797812723
H           29.66977972705008        3.35110242364272        2.96012729741215
H           32.28919285258207        3.38306615210162        2.96828151552299
H           34.19369594222117        1.95079186522638        1.70709464903312
H           34.15452632354445       -2.05511672610446       -1.75845335773584
H           32.22181232805152       -3.46457803009123       -3.00263408214285
H           29.60303870940821       -3.39781102296662       -2.97498864023879
H           26.98357107648499       -3.40524861647439       -3.01133365348040
H           25.07897679685874       -1.97093162649133       -1.75246795853179
