124
 energy: -225.122086450879 gnorm: 0.000288771248 xtb: 6.5.1 (b24c23e)
Ni          13.01628737311907       -0.03405666638720       -0.07802277091828
C            9.62994761718702       -0.08127915520171       -0.28947029420445
C           10.29448751403118       -1.28975754815253       -0.28172777065173
C            9.62700522280194       -2.55463901705790       -0.32659355482303
C           10.58017320664428       -3.50183350129082       -0.16486214523306
C           11.83292067577630       -2.81534737563428       -0.04406252959529
N           11.64807425839608       -1.45778922741287       -0.12788989753155
C           13.04507400177581       -3.45210608736674        0.18940970694525
C           13.05879538394977       -4.92913154279521        0.33579697591116
C           12.71870157049152       -5.75232110439208       -0.73724186984845
C           12.73350408701480       -7.13226238724864       -0.60242614110685
C           13.08537929398490       -7.70360564285568        0.61811788791207
O           13.10926644673186       -9.04986163411071        0.79501894764982
C           13.42588216408800       -6.89129593353038        1.69817815116883
C           13.41498628304088       -5.51532158271992        1.55214843188456
C           14.24926921055330       -2.76650716405141        0.27073598589987
C           15.51709618557712       -3.41267760271219        0.42702545905087
C           16.46313631688340       -2.44830809319546        0.32920878611494
N           14.41880255458252       -1.41048240942799        0.09857186653404
C           15.77222684824935       -1.21626154814483        0.11919179766570
C           16.42908738988139        0.00211389904228       -0.07796274920861
C           15.74516400045336        1.21280102075014       -0.22001433407793
C           16.40750744366618        2.46646053836942       -0.38909731095892
C           15.44389204384394        3.41872280163735       -0.38338685580942
C           14.19411552520633        2.74219893256904       -0.21270586348297
N           14.38982422683764        1.38113035853155       -0.14294360228150
C           12.97109529183821        3.39493215566012       -0.12830577125030
C           12.95701749477999        4.87751888148332       -0.12731558582826
C           13.58947561679006        5.59128184644764        0.89352153042937
C           13.57649130154065        6.97471440488495        0.90372944489022
C           12.93254438552518        7.66760254736481       -0.11990178283734
O           12.94121199073526        9.02481033824945       -0.08068896828296
C           12.30320364746104        6.96930934472197       -1.14778972919524
C           12.31528688593734        5.58305387093388       -1.14557683171581
C           11.76181049184843        2.71358875271113       -0.07054795695411
C           10.48334095288614        3.35813949556238        0.00364908880619
C            9.54727017605347        2.38347507372098       -0.07564021998562
C           10.25391339031882        1.14313795737043       -0.16997570102159
N           11.61002920179051        1.35078079034279       -0.13851052012473
H            8.54859936002519       -0.09610435388635       -0.36116757644163
H            8.56255652204159       -2.67994952939572       -0.44610000260818
H           10.45704908984315       -4.57168170639017       -0.11954984968977
H           12.45627126709664       -5.30865282867062       -1.69121302471662
H           12.47432237766402       -7.76856017093062       -1.44183784683839
H           12.85804340554414       -9.51613963287086       -0.01358790321833
H           13.69502026328106       -7.34945433696985        2.64183439575151
H           13.67108561478826       -4.88241609418118        2.39440935110762
H           15.65577890125072       -4.47162049765566        0.57135587649806
H           17.53505054755094       -2.54722728729856        0.38691810242525
H           17.47384371178437        2.58650736167157       -0.49257255878970
H           15.55804506662646        4.48444568227513       -0.49602663505470
H           14.08136996405296        5.05199291294216        1.69528162245454
H           14.05960013635212        7.53072386911604        1.69763485343294
H           12.46719381874984        9.40234607038894       -0.83376876521346
H           11.80827472042863        7.51263513639587       -1.94562528470452
H           11.83679165310445        5.04110672451476       -1.95375683241704
H           10.33348959434620        4.42070300350149        0.10515848639971
H            8.47282082323508        2.47518299506525       -0.06172682603180
Ni          31.58457496407130        0.01967054672939       -0.08150036563518
C           34.97127934462950        0.03697350076320       -0.29410525587889
C           34.30671659877709        1.23409397646488       -0.45948275994902
C           34.97419897254753        2.47975141083186       -0.68373219120571
C           34.02067499744525        3.44003693114249       -0.66096257012187
C           32.76781647142349        2.77749985295278       -0.44511847391120
N           32.95288590564977        1.42198711309465       -0.33333058777974
C           31.55520764025549        3.44071649354736       -0.30764255151205
C           31.54073757667920        4.92345799351064       -0.37533179802013
C           31.88064636050716        5.58384135467341       -1.55560516390048
C           31.86430346165055        6.96880042894287       -1.62097385000076
C           31.51114672742677        7.70961199359474       -0.49560299988434
O           31.48542371055577        9.06726735885645       -0.51457199738092
C           31.17097406386211        7.06098795289454        0.69010188643121
C           31.18333972149535        5.67833428334296        0.74378247214151
C           30.35097835512688        2.77356306027627       -0.13038818644396
C           29.08295265701637        3.43524288627260       -0.07022518437382
C           28.13710273088127        2.46664835904307       -0.02887289855200
N           30.18176513039505        1.40682525302465       -0.10552373552889
C           28.82833313910948        1.21735145294301       -0.05821185141991
C           28.17160799237255       -0.01677105121941       -0.07743578524838
C           28.85564036425303       -1.23523291464816       -0.04318165369961
C           28.19343438688165       -2.50025962464276       -0.02978801916208
C           29.15720795251137       -3.44168605751459        0.11253992459197
C           30.40693501410712       -2.74749044241607        0.18346166005669
N           30.21101915764175       -1.39056139917249        0.05689780869989
C           31.63012973456205       -3.38117821662333        0.35982119051450
C           31.64493577778688       -4.84842264051884        0.57276693191327
C           31.01534496603490       -5.40892579369334        1.68674387748015
C           31.02993587695138       -6.77660295883835        1.89516228039752
C           31.67252550670581       -7.60854915121019        0.98001091837372
O           31.66556586848861       -8.94612330841835        1.21347816572784
C           32.29893643908784       -7.06433933800828       -0.13878132889878
C           32.28536874092856       -5.69208553886107       -0.33525811516481
C           32.83931182232723       -2.69843063877402        0.31929492371332
C           34.11777342319655       -3.32577423161213        0.48490269946542
C           35.05384614330881       -2.37222401961917        0.26819795984067
C           34.34719470198502       -1.15803668042224       -0.00214302641433
N           32.99105133638343       -1.35924319293167        0.05775026358258
H           36.05270608057688        0.04157176804018       -0.36599653350650
H           36.03884694561851        2.58696622439730       -0.81815414681589
H           34.14354375112847        4.50539506827230       -0.76919162853811
H           32.14407592638128        5.00765980737861       -2.43560072134043
H           32.12304035454798        7.47783917604483       -2.54323743405561
H           31.73654365296834        9.41246781881828       -1.38181666583737
H           30.90086395341360        7.64999487245655        1.55782327127083
H           30.92758485245934        5.17305500542514        1.66833886722572
H           28.94404836905771        4.50390055814953       -0.08015326074396
H           27.06512498594756        2.57261443770065        0.01291540272479
H           27.12706898554367       -2.63401928657747       -0.11444603763764
H           29.04324948170395       -4.51253950067010        0.15468095715935
H           30.52454335226965       -4.76063341340800        2.40398641916189
H           30.54924139664166       -7.21343755818318        2.76172836738214
H           32.13826586188139       -9.42734685441154        0.52113509802018
H           32.79290284400536       -7.71602820997547       -0.85151902099581
H           32.76178002230778       -5.27113050902660       -1.21369331012298
H           34.26755794135865       -4.36306749037760        0.73664728652726
H           36.12828907694045       -2.46090628436885        0.29560959042869
C           17.83351257000087        0.01127930436918       -0.10590893678189
C           19.05764239922771        0.00719886577054       -0.12743863517967
C           20.40077147929957        0.00164966668592       -0.14208937665159
C           21.63118811242079       -0.00799788004601       -0.14742277200370
C           22.96959756238076       -0.01653131811221       -0.14641380518946
C           24.19999467114242       -0.02649088637757       -0.13935431656238
C           25.54308664925988       -0.02902578279578       -0.12474895661236
C           26.76718547653236       -0.02977170731482       -0.10432120034705
