326
 energy: -626.378312447179 gnorm: 0.000539211803 xtb: 6.5.1 (b24c23e)
C           56.70915513066876       -0.10178196129685       -0.09793919365375
C           57.32118724871994       -1.30908083461243        0.21238002228470
C           56.67308604980985       -2.54967279765725        0.47059111609732
C           57.63584549625664       -3.47696404951916        0.75219707470331
C           58.90319259477658       -2.82966225516152        0.68440463709163
N           58.66331323451121       -1.52928761277716        0.34511819323166
C           60.16789130659056       -3.39417518544953        0.88981364344539
C           60.20099089017504       -4.82281843598559        1.27952534098483
C           60.86047836040716       -5.75919189286050        0.47703662376151
C           60.88943912815640       -7.09493524196421        0.83364363405323
C           60.25676791090640       -7.49878605338560        2.00603101545106
N           60.28387005991348       -8.90018183361493        2.38539037949202
O           60.87142737420192       -9.66259921265482        1.66155004935217
O           59.71576744840509       -9.21424548348174        3.39986777809059
C           59.59718908812246       -6.58267384200115        2.82049374941499
C           59.57009343200451       -5.24999962594499        2.45222464973908
C           61.38293857456019       -2.71655579959934        0.75511231126269
C           62.67925136675471       -3.30969139213465        1.03247471086700
C           63.59748845772276       -2.35345365800328        0.78402734589812
N           61.53444184071875       -1.41951423232665        0.37205620643077
C           62.86067422946932       -1.17540929617355        0.36838195652522
C           63.49595071162908        0.03090264527448        0.00994032334710
C           62.85809892313677        1.23399914397600       -0.34769734237154
C           63.50080357118981        2.44550470379089       -0.71595655206779
C           62.53251734814776        3.37898596058622       -0.96186855408003
C           61.26737722234795        2.76587776579727       -0.74388603659124
N           61.51581223838827        1.46833196597491       -0.38434479328099
C           60.00253062127020        3.34540689489915       -0.89758644597542
C           59.96644680017186        4.78079229251676       -1.25868513613142
C           59.34768703892769        5.19779762021674       -2.44163251417715
C           59.30935472794231        6.53777057211063       -2.78092042609624
C           59.89055308678596        7.47151863422603       -1.92750184695934
N           59.85034334213187        8.88018523562412       -2.27692209576713
O           59.30116553726894        9.18449997747332       -3.30470171046410
O           60.36896524490390        9.65807018644109       -1.51747505473979
C           60.51021572893460        7.07797293689056       -0.74470390888898
C           60.54814261165088        5.73497070202118       -0.41763891867886
C           58.78588891944201        2.67295118562367       -0.73497149773460
C           57.47844606148335        3.30180687582586       -0.84995500405063
C           56.56830894324803        2.33227985594405       -0.63100009336011
C           57.31798725229653        1.11627347245786       -0.36752390561130
N           58.65022644970729        1.36172409804279       -0.42900803631691
H           55.62440547197943       -0.12075271505434       -0.12521751566294
H           55.60613324698500       -2.70096093028693        0.43628002878578
H           57.48709828047009       -4.52051743874110        0.97722351283647
H           59.38634804830991       -0.83066063237873        0.20955133003479
H           61.33731558902426       -5.43460646599645       -0.44040135223827
H           61.39248617143471       -7.82834109332203        0.21498368702350
H           59.11684644178428       -6.92142765784708        3.73055966274275
H           59.07220138274714       -4.52534494627145        3.08597420842561
H           62.84295721547139       -4.31544002138764        1.38378300594367
H           64.67014595110729       -2.41107817483579        0.87543362338637
H           64.56864568147905        2.57558869511670       -0.78530871111233
H           62.67906368153240        4.39875314479186       -1.27822323461524
H           60.79446682340517        0.78377051162991       -0.18247488791878
H           58.91063405323078        4.46022772469341       -3.10449545617855
H           58.83761166350009        6.86932205440640       -3.69810474751216
H           60.95081639340985        7.82459849651685       -0.09499511358922
H           61.01450785977395        5.41814516221436        0.50799465641868
H           57.30504850743144        4.34567564954776       -1.05577056497557
H           55.49215035576588        2.40377799832270       -0.63012035277854
C          127.56242688454240        0.02292444714560       -0.14194708146997
C          126.95319667497782        1.21841585134381       -0.49980875596187
C          127.60434432759125        2.41365870796790       -0.91596373057794
C          126.64369750001644        3.35484733526773       -1.15547520628274
C          125.37457662879676        2.76667322358486       -0.88498657106410
N          125.61142339537768        1.47738634196807       -0.50392378502090
C          124.11117421623783        3.35716810164372       -1.00914962841021
C          124.08327793375646        4.78323515899878       -1.40906729296953
C          123.43774291301288        5.17720180232634       -2.58528345494182
C          123.41337904243814        6.50749067299552       -2.96237281175780
C          124.03651339265683        7.45418450864826       -2.15409904369550
N          124.01300016001440        8.85270500436522       -2.54428466284372
O          123.43815428707956        9.13782205684302       -3.56337393710358
O          124.57126720139530        9.64146940100254       -1.82536714705584
C          124.68294545549642        7.08352432397329       -0.97835033340586
C          124.70570543611241        5.75002196318691       -0.61299921124701
C          122.89394122795038        2.70841778895344       -0.78349836789506
C          121.59802836253850        3.35834477672816       -0.86975613087104
C          120.67768874201130        2.41340424528436       -0.58823625961538
N          122.73981485319150        1.40274373018102       -0.43203006631933
C          121.41273846598955        1.19301396708649       -0.31641281313438
C          120.77538135192248       -0.01795476156624        0.02154712237131
C          121.41065366719037       -1.22822755769170        0.35898638866188
C          120.76501045144147       -2.44924612575123        0.68891873871136
C          121.73121919164913       -3.37643162457457        0.96471131126001
C          122.99813508843596       -2.74591104920939        0.81831920412357
N          122.75259267823076       -1.45204534196267        0.44367088863593
C          124.26164543138529       -3.32604132940751        0.98012738805891
C          124.29481584974106       -4.73979019648626        1.41878838506998
C          124.90122641521366       -5.71409536529499        0.61932583210678
C          124.93597504740976       -7.03545891932541        1.02534812587523
C          124.36367327929690       -7.38664813775004        2.24482521242036
N          124.39953871713482       -8.77217776519228        2.67740714314934
O          124.93653517662358       -9.56936209296190        1.95163771962494
O          123.88935305808602       -9.03944890229822        3.73523154853039
C          123.75680928104305       -6.43238861406392        3.05658506888201
C          123.72237401693387       -5.11473143288131        2.63854462691735
C          125.47966737675152       -2.67287451666576        0.75949804772756
C          126.78593031193742       -3.27540593376187        0.98026204563557
C          127.69810212431426       -2.33644419061829        0.66003010446250
C          126.95094272137416       -1.15722354133004        0.25841274408644
N          125.61815398857554       -1.39406445016399        0.33911768089627
H          128.64716220299860        0.02237054403835       -0.17564517376946
H          128.67180712712599        2.52415789370786       -1.01972438258772
H          126.79485877874471        4.36501419311591       -1.49970155788588
H          124.88666279043512        0.80999979379337       -0.26194101218124
H          122.96808531803003        4.42913207449712       -3.21314449278015
H          122.92087050777954        6.82136949577458       -3.87484202737622
H          125.15650757783847        7.83998950564826       -0.36419133407707
H          125.19348141175215        5.45123157032270        0.30758470563284
H          121.43572021835372        4.39870160764030       -1.10006626426567
H          119.60458312042776        2.50979437502005       -0.55028395671986
H          119.69667853835185       -2.59209068583923        0.70518239318365
H          121.58199185340666       -4.40935268341925        1.23355599265972
H          123.47558026274771       -0.76695805423825        0.24960798881247
H          125.33129740479339       -5.43068538695163       -0.33416091176376
H          125.39799210580472       -7.79787369799122        0.40975406208930
H          123.32308650441132       -6.73032688348509        4.00359097200243
H          123.26592828561870       -4.36052210546641        3.26900843810012
H          126.95727849132426       -4.27534271198455        1.34475569078211
H          128.77419805028893       -2.40124728964213        0.69242048021001
C           68.69823276049439        0.05954131931304       -0.02565592836174
C           67.46973506445549        0.06143429544919       -0.01270816583088
C           66.12568244170198        0.05810569892070       -0.00203658590095
C           64.90168627529739        0.04801791529807        0.00772322710434
C           70.04207194027124        0.05291412797459       -0.03754123198770
C           71.26621936791037        0.04020370204511       -0.04915533148309
C           84.73286249099939       -0.00041878594577       -0.01556015421413
C           83.50401074278918        0.00107481658432       -0.02027458519420
C           82.16064987173395        0.00007835256041       -0.02757674772449
C           80.93624450202034        0.00039979219876       -0.03948634645012
C           86.07623903094324       -0.00521192657830       -0.01601807670648
C           87.30068073898227       -0.01332871331805       -0.01730300592938
C          100.76627282342690       -0.02476848750772       -0.01572600287659
C           99.53746095230117       -0.01929059005844       -0.01561312853922
C           98.19409910438334       -0.01687609588031       -0.01735972221889
C           96.96964910248489       -0.01593907696026       -0.02284396125389
C          102.10966126937772       -0.03298752634253       -0.01796401999194
C          103.33404967780669       -0.04561724479708       -0.02094219833445
C          116.80133797621687       -0.06247271476067        0.03042641245090
C          115.57289883594383       -0.07028753482810        0.02604716717777
C          114.22890917314331       -0.07841135692697        0.01738818535977
C          113.00480612936514       -0.08577642155382        0.00295560038563
C          118.14551186373795       -0.04781810202012        0.03387285368099
C          119.36941584821058       -0.03099054533341        0.03118620823747
C           72.67086600963383        0.02595877298783       -0.06146995119925
C           73.30187941404036        1.02684668216184       -0.82543418959731
C           72.65728820775803        2.05265180505154       -1.56364294869131
C           73.62384502127681        2.79089882447926       -2.19008984299393
C           74.88730585177152        2.23062380593781       -1.85714567921333
N           74.64276171823086        1.17535487427857       -1.02089348605788
C           76.14931096565752        2.67371167065988       -2.27441741534369
C           76.16608705362779        3.80975076285583       -3.22597535065720
C           76.79766257204012        5.00962166101886       -2.88434731396313
C           76.81682790128400        6.07119617045240       -3.77045245414587
C           76.20287533857319        5.93073003791151       -5.01180895307242
N           76.22265467036505        7.04118905163783       -5.94775453766563
O           75.67372584515638        6.88582388958870       -7.00835273732061
O           76.78599682034080        8.04885878064031       -5.60529609596673
C           75.56986527049988        4.74456884677168       -5.37207285736598
C           75.55170388959634        3.69096238892659       -4.47651229560007
C           77.37426412090257        2.13682701799973       -1.87344102517850
C           78.66098747509226        2.58862679920902       -2.37345719502853
C           79.59613191502832        1.84425147911552       -1.74850393722914
N           77.54828224942018        1.12108707000083       -0.98416176927556
C           78.87912017926249        0.93171132132174       -0.87961576706248
C           79.53203067118842       -0.00259852293335       -0.05045337377106
C           78.90105589333160       -0.95625886388802        0.77192292769853
C           79.54603041101184       -1.88895436912384        1.62454518849584
C           78.57947845730443       -2.64971506504270        2.22321484470765
C           77.31557190521067       -2.20751775273730        1.74532124819063
N           77.56021682755397       -1.17496730242645        0.88082156223123
C           76.05359293140008       -2.70334902517149        2.09716583041368
C           76.03710906087392       -3.86139474131532        3.02179337422386
C           76.65256248963379       -5.06344204369915        2.65888079472537
C           76.63944201524210       -6.14759658270069        3.51734362427462
C           76.01004237693692       -6.02731527948514        4.75298720612533
N           75.99800974665588       -7.16123116551394        5.66060977271455
O           75.43732660383547       -7.02332863617535        6.71734148941574
O           76.55017153457158       -8.16900555293918        5.30053578675258
C           75.39330332313112       -4.83917617425710        5.13448244043744
C           75.40756655453113       -3.76269425472537        4.26647160248713
C           74.82854454609765       -2.20085975138465        1.65315820628780
C           73.54187969385775       -2.78181403579295        1.99441553648355
C           72.60666144145576       -2.01765784491210        1.39384014866862
C           73.32353260762301       -0.98080024074800        0.67786123520902
N           74.65482306217535       -1.12326720967270        0.84031125218792
H           71.59047886744588        2.20215862441957       -1.60216554438061
H           73.47603871582375        3.65397084074191       -2.81830844849256
H           75.36136674003333        0.59161950263442       -0.60602389259336
H           77.26141567306973        5.11051297112804       -1.91010419267556
H           77.29891073155407        7.00650866690532       -3.51264056924296
H           75.10330351316121        4.65895702838563       -6.34607466114875
H           75.07419888546215        2.75754477323505       -4.75105574384884
H           78.80758796781615        3.35956121428899       -3.11226971983807
H           80.66831595927667        1.88202925938632       -1.85474622461106
H           80.61301436415923       -1.95910939912940        1.76061794740144
H           78.72779379802013       -3.43988359950055        2.94084604170114
H           76.84130178781001       -0.64848674741038        0.39582578020438
H           77.12766587777924       -5.14920825495683        1.68853811754207
H           77.10791185459071       -7.08483717207739        3.24200702160863
H           74.91362031250537       -4.77020991796373        6.10341123698042
H           74.94228282893349       -2.82807753136061        4.55699835484103
H           73.39549280687932       -3.66243077571979        2.59837587934531
H           71.53446588881278       -2.12894236450544        1.40989949050890
C           88.70492457694452       -0.01737117206330       -0.02356064150815
C           89.33048126452631        0.97863758458738       -0.79874435840729
C           88.67973097757002        1.99444561508791       -1.54536198715086
C           89.64207334857836        2.73676333313701       -2.17338734242726
C           90.90900185412073        2.18840499249217       -1.83388771300157
N           90.67045485630339        1.13588061007059       -0.99215554990091
C           92.16854267720251        2.63909626126995       -2.24986875010877
C           92.17894761854288        3.77461941487370       -3.20227077387463
C           92.79925654758048        4.97973064508388       -2.85860553373448
C           92.81021083435211        6.04222904987103       -3.74376834648065
C           92.19959837190085        5.89725837508126       -4.98621991781063
N           92.21004452857618        7.00913072970796       -5.92083046894472
O           91.66528576277106        6.84936184929993       -6.98282904273103
O           92.76214598173257        8.02206747616119       -5.57570711140481
C           91.57857860921898        4.70552849055488       -5.34885383413791
C           91.56846177287385        3.65099279983563       -4.45420646203076
C           93.39639638611465        2.11021882753058       -1.84692891012134
C           94.68052995757220        2.56770056185360       -2.34816011264643
C           95.61952672409598        1.82672203044892       -1.72488951948699
N           93.57566912675237        1.09587204548982       -0.95714952695062
C           94.90746661246436        0.91151137317797       -0.85478453576644
C           95.56538897902827       -0.02045354197639       -0.02701570316785
C           94.93987154137267       -0.97243386944686        0.80164194476614
C           95.59070929782074       -1.90112309325489        1.65412419693614
C           94.62835540988304       -2.65955525775883        2.26255709135885
C           93.36131060248543       -2.21986276869799        1.79100840725875
N           93.59983440064057       -1.19141227764201        0.92002104902969
C           92.10173031741917       -2.71393324216280        2.15427183353222
C           92.09136724621877       -3.86710142954695        3.08521180623993
C           92.70117819861140       -5.07209020576311        2.72263335018919
C           92.69143096097474       -6.15283344107400        3.58544240536515
C           92.07140483444046       -6.02597535905466        4.82514565846566
N           92.06155949341169       -7.15687183085976        5.73664968933284
O           91.50999124473179       -7.01292862444072        6.79732633865028
O           92.60630484177234       -8.16827185085525        5.37549286797829
C           91.46132192235329       -4.83445986436208        5.20677483128084
C           91.47194298275029       -3.76147955257757        4.33435170573480
C           90.87384750449728       -2.21573682295760        1.71402070413411
C           89.58959980330484       -2.79483555482355        2.06740423706719
C           88.65061693133056       -2.03965326662071        1.46139676642962
C           89.36278629090884       -1.00988872211528        0.73057111992292
N           90.69463566771893       -1.14692490540581        0.89046274803223
H           87.61194154011915        2.13568777904157       -1.58726055165767
H           89.48898347491425        3.59499867588260       -2.80691773133372
H           91.39283063024421        0.56072367657696       -0.57188662394421
H           93.26036295017738        5.08397360882282       -1.88345782972085
H           93.28309388917630        6.98175356695089       -3.48423958263032
H           91.11452268672871        4.61651662730021       -6.32375087543997
H           91.10006924046270        2.71346365834454       -4.73041563283686
H           94.82282565357791        3.33958200503741       -3.08683238683944
H           96.69140160547072        1.86880699908648       -1.83258902448968
H           96.65856948916002       -1.97025541566225        1.78364438480999
H           94.78152880323681       -3.44655035516701        2.98265340479144
H           92.87741365410615       -0.66773429428092        0.43718726250424
H           93.16879690176286       -5.16297368328972        1.74912583870229
H           93.15505493697106       -7.09253161537483        3.31027653848918
H           90.98916712588807       -4.76034917534965        6.17901799602223
H           91.01133542802819       -2.82444558049928        4.62453635478393
H           89.44720357777345       -3.66842293990135        2.68242731291207
H           87.57867519379523       -2.15265219567781        1.48289455587832
C          104.73828485526127       -0.05777101377084       -0.02689489884650
C          105.37035944895081        0.93584007308888       -0.79962079024899
C          104.72633969677292        1.95476773756796       -1.54789684524769
C          105.69391208572026        2.69380239961055       -2.17158560131695
C          106.95756390117374        2.14064665097751       -1.82722964185380
N          106.71163423085477        1.08799403562995       -0.98771417857476
C          108.22027847333122        2.58909586402685       -2.23537236507598
C          108.23752464435131        3.72620390264370       -3.18583406660502
C          108.85637452944165        4.93059271560694       -2.83719660253781
C          108.87210026075421        5.99440369806274       -3.72075871255878
C          108.26766404851324        5.85151601861094       -4.96646885058685
N          108.28235845836592        6.96493632672732       -5.89911557006379
O          107.74278898625086        6.80678769284784       -6.96405671152884
O          108.83276572082677        7.97735040424016       -5.54983845994187
C          107.64840101664636        4.66040642452181       -5.33414071820170
C          107.63361384658729        3.60454249893026       -4.44117743921731
C          109.44500285077224        2.05711286404003       -1.82642925991109
C          110.73288084574639        2.51632671382234       -2.31634839694369
C          111.66703889646789        1.77144051142329       -1.69056157587822
N          109.61722697225886        1.03781532316214       -0.94122381766369
C          110.94842054788752        0.85128459108667       -0.83110942100189
C          111.59987448503203       -0.09009279829792       -0.00928724634176
C          110.96817904155438       -1.04952679749584        0.80546111084170
C          111.61233699988087       -1.98920426262776        1.65101375063648
C          110.64471080097076       -2.74678819137633        2.25208343993793
C          109.38082386529801       -2.29556198954598        1.78281257055170
N          109.62656943170518       -1.26249853884252        0.91953945188655
C          108.11762782551156       -2.78214531656842        2.14393470328279
C          108.09787094728030       -3.93770318115166        3.07178544061985
C          108.69644422419434       -5.14745647607133        2.70652581068737
C          108.67555935640222       -6.23032621734498        3.56651359069126
C          108.05577267506973       -6.10085227857995        4.80609000117708
N          108.03366019362041       -7.23408567795954        5.71431299444811
O          107.48289221999195       -7.08751278385866        6.77510163529033
O          108.56836431584772       -8.25004047309465        5.35081041555069
C          107.45724841376112       -4.90438314121445        5.19059926736617
C          107.47895654042864       -3.82933511286983        4.32101092805647
C          106.89321052360167       -2.27365182207086        1.70588726754646
C          105.60516581151725       -2.84546913007062        2.05774658986753
C          104.67106753431666       -2.08256802330380        1.45398220591206
C          105.38987633664337       -1.05541526784321        0.72591449790078
N          106.72078486059860       -1.20127795736850        0.88554584073446
H          103.65925103352784        2.10000315638480       -1.59391324798566
H          105.54649513478688        3.55307080609136       -2.80506053561577
H          107.43000880870927        0.50947295635009       -0.56520327264738
H          109.31232832543618        5.03342421197393       -1.85948556241338
H          109.34380620273853        6.93344567851640       -3.45736901216001
H          107.18911763196641        4.57299210784904       -6.31143678658980
H          107.16637367149339        2.66753870926975       -4.72111089506482
H          110.88088834256534        3.29229129859656       -3.04958746072313
H          112.73962698224361        1.81347305747637       -1.79071529503913
H          112.67962217137692       -2.06555398684600        1.78134794358262
H          110.79221064156152       -3.54049034979075        2.96599419472413
H          108.90812985887153       -0.73013988529588        0.44025919299744
H          109.16368480957719       -5.24038897612153        1.73303482150971
H          109.13003818490849       -7.17382639880330        3.28911619208990
H          106.98506028133436       -4.82824933948334        6.16266968765278
H          107.02713413850257       -2.88866691778479        4.61325987310231
H          105.45707996178659       -3.71995812709566        2.67013224423312
H          103.59842896132392       -2.18879856860986        1.47516520755182
