382
 energy: -634.880065093448 gnorm: 0.000574111025 xtb: 6.5.1 (b24c23e)
C           75.61655719991074       -0.03552664589584        0.13047538164381
C           76.22543793542701       -0.89438287508911        1.03674150371887
C           75.57256395040915       -1.78383751031555        1.93505537677328
C           76.53398318660255       -2.43809724014701        2.65342359566185
C           77.80510691566965       -1.95932399787574        2.22674350709320
N           77.56812551256409       -1.04019707829384        1.24376332486179
C           79.06812104268496       -2.34266691406959        2.69453259782484
C           79.10176077189566       -3.33840323727978        3.79118547759946
C           79.76052170402274       -4.55892976885081        3.62077954543992
C           79.78796217575487       -5.49872992485458        4.63546064460645
C           79.16554941656297       -5.22999382169300        5.85729644126029
N           79.15632957344729       -6.18367068492517        6.86041326293857
C           78.50202211038049       -4.01330533676801        6.03514192355984
C           78.47142134664877       -3.08272306546938        5.01149152726057
C           80.28139857802140       -1.85604342824038        2.19978652740176
C           81.57818185836226       -2.20107930723156        2.75303476995535
C           82.49720590997119       -1.54827923621531        2.01098033977527
N           80.43391227359368       -0.99201196594435        1.15834147003749
C           81.76041825027433       -0.79963570821691        1.01193393328510
C           82.39644733350424       -0.01333207358672        0.02943179429734
C           81.76043975536768        0.77626695783944       -0.94781266957671
C           82.40409783557469        1.53759070227809       -1.95847209389314
C           81.43784621700797        2.18104262730554       -2.68198934285631
C           80.17360638838184        1.83969845220436       -2.12755317603789
N           80.42025462491112        0.97856347520690       -1.09049683066513
C           78.91281143908068        2.27420989150898       -2.55317482356175
C           78.87957615222228        3.25368248211345       -3.66348747910692
C           78.19848153452155        2.96623186935509       -4.84929007798117
C           78.16308373808944        3.88024144026064       -5.88722613296286
C           78.79963268943679        5.11703266519878       -5.75493242203027
N           78.79729749754260        6.01952297840246       -6.80461368274279
C           79.48846317723719        5.41018344981039       -4.57518449525745
C           79.52694842421961        4.48649548814872       -3.54591137706575
C           77.69825194635223        1.85153725858508       -2.00019142708663
C           76.39517979907514        2.35537048905224       -2.40418689224619
C           75.48318581303036        1.70327129543407       -1.65453137023093
C           76.22841276704720        0.81229035481018       -0.78367866392550
N           77.55909824984209        0.93641605160688       -1.01170606797398
H           74.53115743596220       -0.03431429870066        0.14478573914171
H           74.50329810442733       -1.90451584810780        2.00685634883147
H           76.38067480529773       -3.19384767089538        3.40658724087877
H           78.29472899169828       -0.54514122473280        0.73754135853980
H           80.23758128003200       -4.77905149444028        2.67205677225789
H           80.29288988589481       -6.44694034755123        4.48649559404517
H           78.99645236974553       -5.82456949667323        7.78808383450429
H           79.89931982518615       -6.86223383218299        6.80913704276409
H           78.01502425062981       -3.79965101649609        6.98041912798857
H           77.97181584279524       -2.13247540470611        5.16606606235568
H           81.74176728827835       -2.84139334501382        3.60475820363517
H           83.57056902108025       -1.55055076659209        2.11485462848650
H           83.47089061737775        1.57705961901048       -2.10937861297768
H           81.58518300776706        2.82605744199496       -3.53280290352163
H           79.69795694190341        0.55165837578919       -0.51980854845509
H           77.71028647740236        2.00472147715699       -4.96437739814773
H           77.63995514133049        3.64078809035713       -6.80661324232878
H           78.03822265934298        5.90985271115029       -7.45802373140467
H           78.97274864341230        6.97646709069747       -6.54253176814354
H           79.98771421827959        6.36698251951351       -4.46758375124439
H           80.04556811672590        4.73129903753977       -2.62528137718750
H           76.22511760520868        3.11562143137168       -3.14962243108100
H           74.40881895618541        1.80227176868511       -1.66032107503489
C          149.58360440809204        0.06590317527835       -0.08755787350259
C          148.97304679430840        0.70014196687115       -1.16210150144102
C          149.62447406421930        1.31884236758293       -2.26533447414246
C          148.66169134112016        1.82083661695063       -3.09565920389196
C          147.39107844495760        1.53624128824413       -2.51982464223679
N          147.62983093231256        0.85187391472558       -1.36148270389529
C          146.12734541978452        1.86302405668311       -3.02698310673382
C          146.09478255972220        2.63402921657669       -4.29206276016728
C          145.45600198816882        2.11838714180626       -5.42267317208897
C          145.43083910015966        2.82862514128324       -6.60955514706840
C          146.03551045030167        4.08587920273534       -6.68751303337017
N          146.04778116342388        4.78155248497029       -7.88416981198078
C          146.67917374389748        4.60755482770928       -5.56250329963320
C          146.70758360246171        3.88631161857967       -4.38199163822104
C          144.91404587783327        1.51494370874197       -2.42715987543550
C          143.61540833715236        1.92535321491045       -2.92907570486581
C          142.69752148635820        1.40341837046525       -2.08869807953538
N          144.76322041475703        0.77611718005024       -1.29302261634385
C          143.43674610357959        0.68418711350020       -1.06988307947406
C          142.80243752860767        0.00053317720803       -0.01227638566639
C          143.43907113973211       -0.68503982152804        1.04005818517479
C          142.79493155459892       -1.41192183636458        2.07557676476564
C          143.76222488896923       -1.93181536013523        2.89102645881271
C          145.02788175973097       -1.52746360852655        2.38418252484831
N          144.78033386818575       -0.78312378872523        1.26040482361744
C          146.29055963572588       -1.83775270180133        2.90211149012836
C          146.32835925747580       -2.63877850312583        4.14749223694177
C          146.98004366979728       -3.87457463769715        4.17738950748529
C          147.01870095486447       -4.62908284164425        5.33620292273396
C          146.41547763772780       -4.15323059133229        6.50326439605839
N          146.41971424654415       -4.92197110245141        7.65440980161512
C          145.75723861056593       -2.92098230318794        6.48086841062706
C          145.71486608569506       -2.17730759404307        5.31484402142213
C          147.50473498445052       -1.44519687843182        2.32664512168015
C          148.80996126205187       -1.71278994114205        2.90969403623819
C          149.72097431183298       -1.17953058750535        2.07033019789515
C          148.97332027546088       -0.57778113362622        0.98103297632723
N          147.64216700763203       -0.74877021630120        1.17347681320233
H          150.66901607499557        0.07751591637286       -0.09344086144499
H          150.69375629983600        1.36026207673885       -2.39931872642214
H          148.81363126796430        2.33438933935601       -4.03113570937019
H          146.90408264502008        0.49990064839372       -0.74606693227528
H          144.99309072963518        1.13892002748517       -5.37307162012763
H          144.94154057957510        2.41245400530934       -7.48341249481600
H          146.19211685452760        5.77490065744048       -7.79750080829008
H          145.31508871183271        4.53168876379985       -8.52901673305066
H          147.15252157637693        5.58186240113722       -5.61731543149552
H          147.19187498220811        4.30803446501652       -3.50787309697045
H          143.44953725653767        2.54385819887310       -3.79632646457617
H          141.62340900929394        1.49098373303206       -2.12744936405205
H          141.72702380056981       -1.52512139284071        2.17115278471094
H          143.61430754219694       -2.55156368291063        3.76030248059836
H          145.50284480179036       -0.37896528258331        0.67363496118605
H          147.44246286952605       -4.25533423558595        3.27333126877558
H          147.51820130026238       -5.59173781851315        5.34336144524327
H          147.16132031651537       -5.60180975433051        7.70919659979274
H          146.27425901913875       -4.40895067587380        8.50925907146183
H          145.28431368477226       -2.54765397257372        7.38269407131839
H          145.22015740505771       -1.21207719357321        5.31240121190408
H          148.98164719354304       -2.22468933769912        3.84300671554764
H          150.79631339399378       -1.17045862607706        2.15778447635796
C           85.02463229396861       -0.00012640209965       -0.00387302111059
C           83.80229884652272       -0.00892634821941        0.01184858026477
C           86.37376815255963        0.00563645838811       -0.01341337700731
C           87.59633374474721        0.01438505864044       -0.02106019104653
C           98.47392296438971        0.08911844503501       -0.02064793463612
C           97.25087575131685        0.08202388107408       -0.02190063990064
C           99.82190754271555        0.09672957353860       -0.01503126992692
C          101.04495201757292        0.10277023218386       -0.01069849190359
C          111.92368932625415        0.14425146879019        0.01232492633668
C          110.70060759257562        0.14458335593321        0.01346163093460
C          113.27170836877457        0.14337417221615        0.01667987439150
C          114.49483470878853        0.14378415379651        0.01706902709346
C          125.37482146380282        0.08834635962012        0.04520610731789
C          124.15178052727680        0.09455185330881        0.04564744345982
C          126.72290358378908        0.08040899021568        0.04728643742563
C          127.94594782199391        0.07584280946104        0.04564786380795
C          138.82497849974089       -0.00901506466949        0.02614404856600
C          137.60241003791594       -0.00657133109542        0.03511119723709
C          140.17412967753285       -0.01061710809798        0.01763473998728
C          141.39653296931067       -0.00645833482700        0.00394303029898
C           89.00135355916700        0.02270082764545       -0.02143531479623
C           89.62785924197341       -0.33734379551169        1.18786843376654
C           88.97906129369537       -0.74134797594007        2.38261915733963
C           89.94195492315067       -0.96533989580303        3.32934078583930
C           91.20666227655417       -0.69349783221185        2.74160550405395
N           90.96676085467665       -0.33198539350457        1.44253658332742
C           92.46413277985944       -0.77845171506773        3.35443628262322
C           92.47824238811445       -1.12913543257569        4.79418479488925
C           93.15493937205660       -2.26590584396664        5.24390873949677
C           93.16910372339851       -2.59885315661714        6.58659496831521
C           92.51533687764082       -1.78739574226121        7.51745198672249
N           92.49493557845905       -2.13777350971274        8.85648692406381
C           91.83244431146076       -0.65121337414661        7.07575941066297
C           91.81482597124247       -0.33112115920387        5.72982690453436
C           93.68628325666727       -0.55776990254458        2.71581559642775
C           94.96961756545096       -0.57993797806818        3.39341022448543
C           95.90541468836649       -0.34584541644823        2.44947000798651
N           93.86228199554937       -0.28700333799271        1.39241074159615
C           95.19143363231730       -0.16914821900347        1.20108403117590
C           95.84707898970628        0.07354075408256       -0.02356720533315
C           95.22136991730164        0.30976174950480       -1.26375349767853
C           95.87192977205447        0.50737273322941       -2.50842120950194
C           94.90905743906484        0.72593307131221       -3.45649263244352
C           93.64250609703262        0.67934904228697       -2.81419515704344
N           93.88190741901273        0.41177443442050       -1.49224438254019
C           92.38392557014194        0.86192903438210       -3.40238309520189
C           92.36750157078657        1.19676946626507       -4.84587473336412
C           93.01357339552381        2.34005394623362       -5.32307710835108
C           92.99303081224463        2.65731220466785       -6.66973405319428
C           92.32489589494045        1.82905842383278       -7.57520293514297
N           92.34175420552248        2.11705849617102       -8.92907265557458
C           91.68944561593915        0.67546184785954       -7.10834830690444
C           91.70595359124995        0.37135135752851       -5.75895981395864
C           91.16121164770476        0.75152551641161       -2.73608993302960
C           89.87612413390221        1.02570103983907       -3.35272871970133
C           88.94041909620707        0.79260256924390       -2.40844761827883
C           89.65575565261926        0.38633777012161       -1.21567250115745
N           90.98619403241389        0.38611370528019       -1.43596867763341
H           87.91231642212547       -0.85013304436593        2.49441151687084
H           89.79030543573285       -1.30010234572353        4.34249243300842
H           91.68889414734332       -0.10003467736312        0.76873254379435
H           93.65721883122431       -2.90589470505099        4.52682229650892
H           93.68884287172409       -3.48989356964588        6.92153247356137
H           93.24869190786193       -2.73829904711174        9.15034189962688
H           92.30843904976234       -1.37846313229640        9.49195624684941
H           91.32057854368556       -0.01880519191334        7.79297803291517
H           91.29954459624827        0.56398631870886        5.39857202377216
H           95.11425818115191       -0.73680251200294        4.45008720010317
H           96.97591416098328       -0.28367870179334        2.56365095756800
H           96.93981231216766        0.47721833123603       -2.65345116250510
H           95.06216901653001        0.89312025655337       -4.51014658883850
H           93.15875287867011        0.29740691010324       -0.78991973024274
H           93.51718343777078        2.99970875553655       -4.62472896586731
H           93.49111173118433        3.55242421101874       -7.02624196197406
H           91.59608588501331        1.69828791477875       -9.46183764419409
H           92.51016476168819        3.08412475955634       -9.15628294186538
H           91.18210920882109        0.02063731926456       -7.80839975255448
H           91.21766061084777       -0.53031691032487       -5.40579952797230
H           89.73075905823896        1.36642027058640       -4.36510689696509
H           87.86886467664490        0.88680387961851       -2.48454867342685
C          102.44874482156389        0.10859179262596       -0.00580331283570
C          103.07088870348700       -0.19118070220999        1.22247891203043
C          102.41672457966654       -0.53784876160533        2.43204203170786
C          103.37670031595476       -0.73820160874300        3.38710639696870
C          104.64481932623420       -0.50757493502828        2.78946022421474
N          104.40941736776129       -0.19104903870696        1.47770408632748
C          105.90167405890413       -0.59397978524107        3.40312950444905
C          105.91249438981778       -0.91105865618190        4.85083776466272
C          106.56597198541365       -2.05228341975697        5.32302677640100
C          106.57504674800283       -2.35790083629937        6.67214001585998
C          105.93990966595854       -1.51382191257212        7.58676368705293
N          105.91375424827673       -1.83639274625170        8.93250886408928
C          105.28098667940398       -0.37248377693492        7.12260836033480
C          105.26789760426023       -0.07985110426659        5.77034093701904
C          107.12648973599212       -0.40730274102684        2.75894961205614
C          108.40879708262641       -0.42711178745430        3.43860299017987
C          109.34794214045287       -0.22340646616708        2.49096845997538
N          107.30679028361047       -0.17075901420422        1.42959306165921
C          108.63728813169385       -0.06953649136846        1.23768981828969
C          109.29676004301920        0.14035553962297        0.00905130257752
C          108.67484762208521        0.34486677661045       -1.23883210521722
C          109.33001255859961        0.51050927386138       -2.48564816926630
C          108.37020594327537        0.69380846796649       -3.44427870888841
C          107.10103387345127        0.65708919883982       -2.80685172041547
N          107.33591571740929        0.43255727914425       -1.47609615837709
C          105.84389336606836        0.80683190773644       -3.40758944112847
C          105.83252054260223        1.08721920097879       -4.86275913965193
C          106.46838582150532        2.21925317207976       -5.37865337119798
C          106.45287352569999        2.48538784440739       -6.73635828305596
C          105.80005142283349        1.61603160372988       -7.61405882770942
N          105.82328798368366        1.85283137989465       -8.97750526121420
C          105.17407224743070        0.47393342824283       -7.10785576834033
C          105.18569500097308        0.22081192701417       -5.74795947800329
C          104.61852236116738        0.71143232495657       -2.74454373912572
C          103.33496855372201        0.94845306763632       -3.37927879198366
C          102.39593827869035        0.75281878835539       -2.42977283038561
C          103.10784121177284        0.40667654776385       -1.21621350444773
N          104.43882869807581        0.40234480231807       -1.43007062070854
H          101.34861989923527       -0.62809814527707        2.54734075057086
H          103.22036224107413       -1.03131033758305        4.41236952288080
H          105.13466165412518        0.00311347434797        0.79533728625543
H          107.05374232078063       -2.71704153161258        4.61857712003501
H          107.07595893598834       -3.25284529787832        7.02482459719451
H          106.65315295747801       -2.44896513630430        9.23773966957234
H          105.74587057157412       -1.06064843820902        9.55308056271030
H          104.78382568836153        0.28529757078331        7.82720971507633
H          104.77102251217822        0.81880728969876        5.42116978454509
H          108.55011097792821       -0.56129460833726        4.49885180778744
H          110.41884797650998       -0.16886822816084        2.60522604395349
H          110.39873443530229        0.48383953369223       -2.62485203837320
H          108.52743672327759        0.83064875754088       -4.50165876962866
H          106.60999972690212        0.33405133801205       -0.77420047101569
H          106.95983675909116        2.91053451520831       -4.70263860356908
H          106.94307140756672        3.37211760326820       -7.12330684408518
H          105.08656169964324        1.40608991257772       -9.49977918166683
H          105.98460154448753        2.81192615687755       -9.24050348466791
H          104.67804398200001       -0.21220518479863       -7.78564734792972
H          104.70509529831099       -0.67233111143959       -5.36401914308108
H          103.19239163433076        1.24199572294647       -4.40670600538508
H          101.32428419356832        0.83735809322164       -2.51514150581108
C          115.89863346491433        0.14028072607992        0.02267373705040
C          116.51789221472099       -0.16254928170487        1.25167910703343
C          115.85996662849611       -0.49821721355539        2.46239306414648
C          116.81756316595651       -0.70393471540869        3.41860878351751
C          118.08815273911679       -0.48885378495400        2.82034148924500
N          117.85627902104483       -0.17501055414807        1.50725938639118
C          119.34362857451566       -0.58731228656617        3.43489995243659
C          119.34979517704076       -0.89578203356789        4.88451116719302
C          119.98917403854291       -2.04148672055092        5.36503579924487
C          119.99495901700928       -2.33703865412681        6.71643628991942
C          119.37062738386277       -1.47836244900004        7.62488100978175
N          119.34135823098686       -1.79021868943722        8.97307514697231
C          118.72523900985765       -0.33275092813806        7.15229736906432
C          118.71537339369917       -0.05010840609050        5.79790127784332
C          120.57104545375194       -0.41861038445642        2.79057361594549
C          121.85305159789363       -0.45438370420104        3.47015757177900
C          122.79473129513555       -0.26418102770321        2.52222270791382
N          120.75432818674521       -0.18634630984487        1.46092595174686
C          122.08601719417783       -0.10157545703554        1.26898529879486
C          122.74788790512963        0.10323359145783        0.04090114819307
C          122.12829774963978        0.31684258616831       -1.20656212144770
C          122.78521194043780        0.47848331628418       -2.45293281359869
C          121.82746955666580        0.67572917064359       -3.41085704513703
C          120.55797885810054        0.65134105516116       -2.77345117009546
N          120.79032388937908        0.41992956260228       -1.44351910736590
C          119.30275741117183        0.81746864342799       -3.37415359606102
C          119.29683119363682        1.10583270565916       -4.82781979062161
C          119.94595710465117        2.23410475471862       -5.33548741535262
C          119.93821532066818        2.50747373293318       -6.69178171604089
C          119.28006936875109        1.64916045348355       -7.57635586774758
N          119.31186518348314        1.89223428827806       -8.93856142297449
C          118.64016774202508        0.51122691541079       -7.07833065885829
C          118.64410031034771        0.25090631961639       -5.71969859214156
C          118.07592640186112        0.73141287888848       -2.71274715168284
C          116.79514473075837        0.98261751874301       -3.34770133799625
C          115.85342773679106        0.79061907268049       -2.40015004965000
C          116.56103863127443        0.43420065012918       -1.18704554847210
N          117.89210127619165        0.41880926799838       -1.39961275007338
H          114.79097553766067       -0.57711503562937        2.57766052216221
H          116.65808691439162       -0.99097399549149        4.44510512113852
H          118.58350566448280        0.00925964672814        0.82425347094175
H          120.46850739331940       -2.71751752495023        4.66552791266980
H          120.48505589789826       -3.23536329040891        7.07565517487042
H          120.07381386492098       -2.40882169710751        9.28279636536375
H          119.18244099336465       -1.00787785754405        9.58768548295813
H          118.23622365933953        0.33624718066244        7.85202899311421
H          118.22941200696316        0.85191464535371        5.44210534517415
H          121.99296970933931       -0.58944523702779        4.53046783071702
H          123.86629929321482       -0.22382205844422        2.63626665961628
H          123.85354229759308        0.43996586110266       -2.59242528535874
H          121.98623816120057        0.81384971555630       -4.46783287947883
H          120.06368307066529        0.32786947759005       -0.74151407541429
H          120.44213384089589        2.91656176135038       -4.65397543908337
H          120.43902474280101        3.39104451366786       -7.07231485996460
H          118.57352254487128        1.45474862981526       -9.46633592108337
H          119.48314896553806        2.85109367101524       -9.19611534626796
H          118.13971861494176       -0.16629758873328       -7.76151356244423
H          118.15287403135440       -0.63919428472917       -5.34220321525927
H          116.65635017402381        1.28199278152631       -4.37397130492022
H          114.78264192214645        0.88491821576427       -2.48626509914826
C          129.34990494855435        0.06622142166089        0.04612873903599
C          129.97244627109836       -0.26000122218128        1.26732490223965
C          129.31742045838479       -0.60922365828761        2.47592045644033
C          130.27771134798655       -0.83964268412969        3.42364338708631
C          131.54740911382987       -0.62763991495573        2.82214170813729
N          131.31191650599800       -0.28903381160086        1.51583420276735
C          132.80458929115721       -0.75370810154300        3.42751877530799
C          132.81460865926491       -1.08832947058190        4.87156595602427
C          133.43519401579880       -2.25391521404740        5.32801600800108
C          133.44608142452756       -2.57140141686085        6.67447014500912
C          132.84629583112635       -1.71542767224828        7.60178893296635
N          132.82284337163992       -2.04797320000105        8.94533942530881
C          132.21900874173716       -0.55038830045021        7.15312412846940
C          132.20360381202892       -0.24575738932180        5.80351823407645
C          134.03067014116658       -0.58763477317822        2.77977089110602
C          135.31617284372399       -0.65942079794226        3.45003631907192
C          136.25450963575338       -0.45267721197554        2.50235182374852
N          134.20885062938700       -0.32062532888287        1.45627143201296
C          135.54053570481651       -0.24388638810081        1.25885665749378
C          136.19735099599060        0.00247428488778        0.03640788460009
C          135.57456974052567        0.26148114894194       -1.20027186358359
C          136.22854065297409        0.46206474399439       -2.44279539131420
C          135.26845801845761        0.68355821310736       -3.39275841498689
C          134.00012642564818        0.63651980307621       -2.75398026562869
N          134.23578430094759        0.36889141446240       -1.43146963722428
C          132.74304353695788        0.81119877924869       -3.34806270181489
C          132.73260366706160        1.12768596604494       -4.79596115026880
C          133.37532480310065        2.26780674345956       -5.28472254537311
C          133.36561606684194        2.56374493271034       -6.63632596350114
C          132.71164755192834        1.71699708751605       -7.53498335308297
N          132.74209500267810        1.98247572264865       -8.89294386279588
C          132.07728932321649        0.56788961524261       -7.05583090264397
C          132.08341064882524        0.28482495907075       -5.70181838874836
C          131.51822474659684        0.70654387190560       -2.68554300985594
C          130.23514737901979        0.96718230863430       -3.31202993243678
C          129.29664649234851        0.75667415719843       -2.36525854939747
C          130.00842883248185        0.37914595318523       -1.16094533534411
N          131.33884089058839        0.36886869515620       -1.37807976569280
H          128.24829319323888       -0.67967689593775        2.59536219829508
H          130.12106247033552       -1.14153928609436        4.44631846415892
H          132.03776148585064       -0.09947344351955        0.83281203174992
H          133.89566531736668       -2.92748270708577        4.61366066126297
H          133.92148579047273       -3.48470223652710        7.01517548070013
H          133.54672241857031       -2.68464555763339        9.23828274576164
H          132.68577653694305       -1.27193069596446        9.57313369353798
H          131.74876042350340        0.11645129655154        7.86760237282456
H          131.73182395472392        0.67073902596536        5.46612074211828
H          135.46065851909904       -0.82805968079179        4.50492216969757
H          137.32715386975789       -0.42864337435931        2.61072051209360
H          137.29667283635879        0.43051052820695       -2.58541012151529
H          135.42483692417170        0.85241149316604       -4.44562149933281
H          133.51036586509042        0.25407043648804       -0.73154942808477
H          133.86859097690873        2.94125981218985       -4.59221130785854
H          133.86205119112046        3.45588524238845       -7.00230884884653
H          132.00587055378165        1.55044970663543       -9.42805983762809
H          132.91025569257482        2.94576806633415       -9.13531213142805
H          131.57982192918385       -0.10052222636303       -7.75007361679823
H          131.59705981276900       -0.61396709936438       -5.33893165458694
H          130.09290167311008        1.28482251918134       -4.33232194578809
H          128.22549311473077        0.85105427855936       -2.44640103781018
