252
 energy: -469.520232162356 gnorm: 0.000826820859 xtb: 6.5.1 (b24c23e)
Zn          51.27390346087489        0.25639437831294       -0.86336670495521
C           47.86552506373352        0.12624855986809       -0.75136395370187
C           48.43941322981507        1.39058256218909       -0.69927694575608
C           47.70966808767999        2.62535725965001       -0.62037945714641
C           48.62447583874176        3.62595364101073       -0.59025689654738
C           49.92600478922082        3.01327671686223       -0.64263899482717
N           49.77803615617944        1.65945221307657       -0.71600583383033
C           51.14697959418599        3.69756514156962       -0.65361545144894
C           51.09022972505459        5.17776613820294       -0.54559456207209
C           50.56288380103963        5.77948514827794        0.59352113388962
C           50.50993623588320        7.16864694094925        0.70084874068749
C           49.94051554990133        7.74871566348827        1.94274585541143
O           49.94593300997487        9.08985876731276        1.95998649698689
O           49.50671770307952        7.09980845737031        2.86016933153061
C           50.98349744866447        7.96847214074783       -0.33923695827243
C           51.50623749841597        7.37200964682108       -1.47588140417975
C           51.56166176372356        5.98905888020921       -1.58017243292209
C           52.41384826016107        3.11173075648904       -0.75132065427033
C           53.66066441075560        3.82517848510040       -0.73569450543136
C           54.64999334833326        2.90163003715207       -0.83824509988409
N           52.67111757926669        1.77035460055105       -0.84892361746481
C           54.02199481972978        1.61495302780661       -0.90123140540812
C           54.71102955471419        0.38916816350131       -0.99798272401058
C           54.11225702894649       -0.88632273179032       -1.03972516927442
C           54.83086982711826       -2.12266814232414       -1.13598468975072
C           53.91083790130197       -3.12001842138808       -1.15457482890660
C           52.61735025500177       -2.50302366216274       -1.05471908011120
N           52.77694117136737       -1.14434866582047       -0.99177898995363
C           51.39646474696725       -3.18609626745060       -1.05199254026447
C           51.44962776958089       -4.66878420355401       -1.12566487997287
C           52.05343587296386       -5.40932904840686       -0.10717114550805
C           52.10236443504188       -6.79495941925446       -0.17353898421085
C           51.55176614378259       -7.45834738103009       -1.25721498519597
C           50.94587159585190       -6.72959766697388       -2.28197446032724
C           50.36844367627473       -7.47614075932416       -3.42692779266353
O           49.80327941670930       -6.68727495781622       -4.35336342963944
O           50.38922003932220       -8.67557380053147       -3.53718992880347
C           50.89473613797553       -5.33862264967447       -2.21382513964263
C           50.12830277956716       -2.59746754444705       -0.98544392809164
C           48.87711887598027       -3.30769616140318       -0.94308874283093
C           47.89227561959570       -2.37881954281154       -0.86093246981867
C           48.52905060722031       -1.09145590742628       -0.84134009787945
N           49.88212799702792       -1.25769542432415       -0.91616459710362
H           46.78135918963958        0.08500770790478       -0.71397441198053
H           46.63407267336900        2.70426101260556       -0.59749486760170
H           48.43929134184084        4.68726737045309       -0.54662756247311
H           50.20123917956771        5.17332616526345        1.41695980921428
H           49.56007228246847        9.38848090652923        2.79947123960250
H           50.94004403397835        9.04759993741645       -0.25544530204817
H           51.87260048831283        7.98757340573442       -2.28972893848531
H           51.96053941515858        5.52961637611825       -2.47771262501966
H           53.76592667405983        4.89454487583632       -0.64773458408612
H           55.71377653359392        3.07272600117010       -0.86664945484397
H           55.90371585516338       -2.21289361907155       -1.18171159736281
H           54.09128969828095       -4.17960076729405       -1.23746655815446
H           52.47403552222298       -4.89263394317001        0.74827711302629
H           52.57142324860978       -7.35634545826972        0.62643001873075
H           51.58202759782461       -8.53991393832928       -1.32529454821640
H           49.45155659287130       -7.24945650300486       -5.06250779385455
H           50.43537405619854       -4.77431775915045       -3.01679007488247
H           48.77127040849387       -4.38058062259095       -0.96300787202579
H           46.82681521801233       -2.53946538272249       -0.80911440777218
Zn          84.03984934906474        0.32691589365094       -0.70535305815193
C           87.44889574721438        0.25782357876509       -0.61219248236772
C           86.80974952650121       -0.95970529285949       -0.81171493275228
C           87.47388958418972       -2.21890492515748       -1.00365339140632
C           86.50774541373177       -3.15931906151184       -1.14898099656681
C           85.23990847399793       -2.48659771455271       -1.03839066904270
N           85.45868842459082       -1.15383743944770       -0.84720432688940
C           83.98356545883539       -3.09698704276512       -1.12825533021970
C           83.95901589044874       -4.57172483623976       -1.29698134713333
C           84.50906941314659       -5.40350929033116       -0.32564156361329
C           84.48513853370358       -6.78871763960759       -0.48320652610906
C           85.08461314965213       -7.62091024647753        0.58954961381506
O           85.00204997258729       -8.93903555939069        0.35551419327720
O           85.60388366195049       -7.17991882739008        1.58297880820997
C           83.91036795435721       -7.35307484223453       -1.62200944726305
C           83.36380970417454       -6.52736815081923       -2.59182079256369
C           83.38527446824060       -5.14889018998094       -2.43246875081689
C           82.74869760791881       -2.44099920477518       -1.06711126202272
C           81.46541738446946       -3.08625525505952       -1.09320271774090
C           80.52605948260758       -2.10994472674920       -1.00914820659321
N           82.56410233407249       -1.08951294900236       -0.95167343636013
C           81.22281983563751       -0.86036833086379       -0.92548293128364
C           80.60162966720276        0.40062547014193       -0.82824356986586
C           81.26798617562463        1.63339172331912       -0.67969416057289
C           80.62050707904666        2.91086239334243       -0.62865430538302
C           81.59170308260941        3.84492201820414       -0.46471886502060
C           82.84542475846456        3.14555253629212       -0.41132667417617
N           82.61276292037891        1.80469827135765       -0.55889503967038
C           84.09921662302665        3.74876222430106       -0.25855462869428
C           84.12149358971419        5.21904924790957       -0.05374654673986
C           83.49667737124390        5.78731099055122        1.05889434452950
C           83.51923672700049        7.16054400585277        1.25929571099088
C           84.16322689587705        7.98434572848969        0.35139703720658
C           84.78955658784122        7.42934613379753       -0.76575216396376
C           85.46830953687835        8.34494390831590       -1.71604971431439
O           86.04588271896638        7.71503872196967       -2.75011160628232
O           85.51281618512328        9.54233838004965       -1.59251168159579
C           84.76830402524821        6.05041124976683       -0.96569264797373
C           85.33307310804442        3.08831725936328       -0.28333505457977
C           86.61885687166662        3.70627896701183       -0.09125872125784
C           87.55285454834021        2.72869171628099       -0.19786751911812
C           86.84985795837261        1.50025732954790       -0.44249813870635
N           85.50824354425349        1.75012313618392       -0.48256135163173
H           88.53382615013982        0.23557658163924       -0.58160574532648
H           88.54395084465163       -2.35309797222263       -1.02790603929009
H           86.63716646980674       -4.21500514919892       -1.32602704683105
H           84.94811486808972       -4.98322877626845        0.57259178888628
H           85.41392191053144       -9.40959806818179        1.09829505251770
H           83.89414980512375       -8.42931624409146       -1.74388822834808
H           82.91853517907253       -6.95894561121835       -3.48117129524198
H           82.96700998832203       -4.50865975330079       -3.20121584173626
H           81.30434868839718       -4.15075345708929       -1.15068601484196
H           79.45421047639582       -2.22295508751640       -0.98858676891497
H           79.55846503793356        3.07009689028464       -0.72172903870030
H           81.47199432346480        4.91460295510784       -0.40303841020144
H           83.00331248217191        5.14290553888068        1.77801079746826
H           83.03334032369072        7.58597491930246        2.12998686184323
H           84.19089048260528        9.05885820707743        0.49273222351336
H           86.46555312554820        8.38006890378068       -3.31949326563811
H           85.24292625387548        5.62388367175097       -1.84147901015777
H           86.78128853550616        4.75303843112747        0.11008714903868
H           88.62441200197149        2.81825550214684       -0.11162174651707
C           56.11928188445412        0.43989547450112       -1.04823913731755
C           57.33578929763657        0.47248811166038       -1.08938853232856
C           67.04698800558928        0.54663261762528       -1.09435390137846
C           68.26493732811421        0.54785118173854       -1.09136059526905
C           77.97627997046914        0.45505779110045       -0.92078653312279
C           79.19260398787239        0.43039592340511       -0.87794664806876
Zn          62.19225401858842        0.52314192536358       -1.12495622943016
C           58.74464742729025        0.49864288566176       -1.12098232589229
C           59.40098239661759       -0.64387169446218       -1.62235150517344
C           58.74165536291849       -1.78218520355985       -2.18922920389479
C           59.70556604349144       -2.67958558730972       -2.51875601338157
C           60.96558994350045       -2.09887572376499       -2.14910022137187
N           60.74588946707028       -0.85165318475218       -1.62944742363683
C           62.21431545401944       -2.71454460213108       -2.29288236159405
C           62.22286455447372       -4.11010224281815       -2.79716804642942
C           61.55412154891619       -5.11688888465254       -2.10596095037929
C           61.56037045278033       -6.42738358759641       -2.58180474708946
C           60.82697907743360       -7.45455845285472       -1.80041077099295
O           60.90623679754687       -8.68556154025022       -2.32646348540265
O           60.21037268893573       -7.22944763202317       -0.79040455497994
C           62.23854511352332       -6.74040038295407       -3.75988239771984
C           62.90454403375079       -5.74029927406868       -4.45077877232257
C           62.89915694092267       -4.43655055110944       -3.97546352765789
C           63.45412497066263       -2.13536142679744       -2.00069075455140
C           64.72124358876269       -2.80736671668305       -2.06748389334996
C           65.67238000549708       -1.89858762074675       -1.73155225167833
N           63.65720870194470       -0.84024043421882       -1.60576718195649
C           64.99810564478690       -0.66548559185228       -1.45420029819724
C           65.63843614478988        0.54131930222661       -1.10549618992824
C           64.98259304052937        1.74348066167756       -0.76973831711854
C           65.64317748402910        2.98208375385921       -0.48378690377361
C           64.67927185311088        3.88749104338212       -0.17642686497816
C           63.41806457286928        3.20692291654435       -0.26617754247886
N           63.63790100461623        1.91062954508491       -0.64856151808297
C           62.16894113883473        3.77897400295700       -0.00222193586036
C           62.15791872809856        5.18353869704981        0.47783535790042
C           61.50230765279963        6.17670348282182       -0.25370737042580
C           61.49248907615519        7.49214905397307        0.18891625160869
C           62.13399804179070        7.83295673271563        1.36791785679208
C           62.79099924180937        6.84967162632534        2.10934689498872
C           63.46604265942971        7.25478865210129        3.36783592388027
O           64.07362629865679        6.24173177311248        4.00209631210961
O           63.48256583163595        8.37997351899108        3.79758906496954
C           62.80275121403227        5.52958303314514        1.66364215851873
C           60.92827491463800        3.14737292702508       -0.14691998999719
C           59.66052711946448        3.71728204793661        0.21281310312643
C           58.70937600364241        2.79825248210437       -0.09429706986004
C           59.38422421253413        1.65984731678846       -0.64230577205351
N           60.72568481694593        1.88997314898925       -0.64772904783656
H           57.67738940917818       -1.87228677687312       -2.33289444140140
H           59.57513218994340       -3.64278203719116       -2.98491664302282
H           61.03373075265223       -4.89541637427092       -1.18053560915730
H           60.40454252742165       -9.29558769519558       -1.76164306753194
H           62.24087958189186       -7.75865798555939       -4.12935902464813
H           63.43077804525895       -5.97555067401907       -5.36903540207767
H           63.41022382312853       -3.65685947558819       -4.52927801625432
H           64.86376266724801       -3.84583822666534       -2.31952194714166
H           66.73698020648605       -2.05092526617451       -1.66095957225881
H           66.70855239313299        3.13948416420683       -0.52813343717576
H           64.80997214314175        4.92791001896406        0.07400015515705
H           61.01055377625674        5.91436022608785       -1.18387240563193
H           60.98301959505202        8.25231697376434       -0.39232671179102
H           62.13617605456721        8.85547123593826        1.72820443959944
H           64.48702834766335        6.58749433416656        4.80983002421384
H           63.30155881889723        4.76589338276119        2.24861732113391
H           59.51781370373336        4.68767080057109        0.66035914105133
H           57.64385876950701        2.87613094608289        0.04796095982428
Zn          73.12067194020383        0.51849549013018       -1.03200675408545
C           69.67360772722135        0.54574804279858       -1.08135484242361
C           70.32315404740562       -0.49761250454210       -1.77223238842696
C           69.65555754084680       -1.51252921187303       -2.53171982337403
C           70.61367307962595       -2.33858733756420       -3.02398109612423
C           71.87851951921198       -1.83697828958278       -2.56522967068296
N           71.66653154735575       -0.70755742069816       -1.82089858242053
C           73.12428440129641       -2.40455363762610       -2.85311014816701
C           73.12196149925494       -3.66738306424501       -3.63436760023484
C           72.50645037015313       -4.80819465822124       -3.12679401432737
C           72.50499669082757       -5.99621002856711       -3.85654254146712
C           71.83507403668557       -7.17848574436435       -3.25955955030796
O           71.89851732491846       -8.27566573347442       -4.02840883284363
O           71.28013847179345       -7.17876855566455       -2.19053656001613
C           73.11974547632104       -6.04878947340653       -5.10757925517463
C           73.73065374791661       -4.91367969183904       -5.61673750645668
C           73.73455007139839       -3.73252277231225       -4.88799080787520
C           74.37002235879756       -1.89523273732411       -2.47054996608593
C           75.63775494231304       -2.51360795626437       -2.73926660967462
C           76.59434424366829       -1.70662843511432       -2.21300467723495
N           74.57870053019798       -0.73595566602274       -1.77317268456937
C           75.92212833156019       -0.59583702392242       -1.60726184350358
C           76.56731598057844        0.47884257768253       -0.96366672930536
C           75.92137650500534        1.57500502585652       -0.35757384003313
C           76.59486011774591        2.67585972099309        0.26479601445574
C           75.63766857900730        3.51502974962871        0.73615022210266
C           74.36712975973585        2.92403806762092        0.42200559060357
N           74.57618856653387        1.75201128956456       -0.25416191641544
C           73.11948898232833        3.46360391670980        0.75309166214187
C           73.11618028072347        4.73783931558227        1.51565890622500
C           72.53158758435787        5.88392397871797        0.97166064839212
C           72.53147213225451        7.08047287847602        1.67490661755145
C           73.11263512646848        7.14822170909693        2.93008836164783
C           73.69776973263538        6.00947889899968        3.48588480088535
C           74.31153947645169        6.12258059465266        4.83264911450658
O           74.85253828366513        4.97764103130391        5.27399170175982
O           74.33635751599688        7.13469661057070        5.48518059208126
C           73.69860384848263        4.80846041900394        2.77924196781078
C           71.87338023615322        2.91194534762438        0.43559652666297
C           70.60490400407542        3.43390822488228        0.86000092173603
C           69.64767164350047        2.61474282072752        0.35401171418178
C           70.31938960424493        1.58574404497165       -0.38210740904980
N           71.66404029245220        1.78069766753912       -0.30627852327995
H           68.58981923539439       -1.57325576252857       -2.68030703549956
H           70.47724822013154       -3.20297207365197       -3.65357890621755
H           72.03402225081237       -4.78874300728420       -2.15075331800668
H           71.44100056464501       -8.99944345882863       -3.57079430068439
H           73.11617428389410       -6.97187964827724       -5.67436383878441
H           74.20693049393473       -4.94641501888879       -6.59013253682816
H           74.20357046303819       -2.84515469538524       -5.29821722160041
H           75.77800699775281       -3.45011352120734       -3.25464113532009
H           77.66285793086405       -1.84775275197072       -2.23178992705795
H           77.66468963069131        2.79001387771221        0.32932899810390
H           75.78029573328561        4.45470264078652        1.24483568342037
H           72.08810500465273        5.83609085443124       -0.01671400465638
H           72.07765274013686        7.96252346458198        1.23763549127289
H           73.12244842440909        8.07485826281257        3.49270863656938
H           75.22965096400843        5.13300247415504        6.15505378219318
H           74.14052415126024        3.92248523287421        3.21958243642703
H           70.46557148918913        4.30394034878406        1.48118410953187
H           68.57965564121281        2.68974691032602        0.47798575135275
