242
 energy: -427.357261741659 gnorm: 0.000872282504 xtb: 6.5.1 (b24c23e)
Zn          48.39330642817890       -0.30560880174475       -0.19524662628176
C           44.97402972835950       -0.27814489546351       -0.15883683520166
C           45.60972088089407        0.59821896438962        0.71211709831614
C           44.94654893582838        1.50176276346851        1.61022899409010
C           45.91479673616804        2.17847067759680        2.27881909576905
C           47.17726412200592        1.69293183430703        1.79584725569462
N           46.96308507811149        0.74017004826044        0.85079228412090
C           48.43775844436605        2.13649126339114        2.23798787790492
C           48.45361058640245        3.14431509048684        3.22760933626508
C           48.46171769904494        4.01379887122715        4.07429507767076
C           48.46912829412067        5.02776237284007        5.05886751675288
C           49.66893886909038        5.54928505762894        5.55725790977007
C           49.62008103321820        6.54200082867943        6.51947095515685
N           48.48111797712409        7.03290964626261        7.00184725605501
C           47.33616274120827        6.54256109695046        6.53313805677428
C           47.27551502402704        5.55001892076847        5.57153923306598
C           49.68132854930627        1.66506065370800        1.77941599256713
C           50.95632301971082        2.12343128849114        2.24942389148496
C           51.90399692833159        1.43018474661411        1.56638066940555
N           49.86885899794188        0.70859375709712        0.82586702527300
C           51.21375300186545        0.54530705783761        0.67414298065964
C           51.83736838316386       -0.34394973226726       -0.22070102012859
C           51.17928927352038       -1.21553252785208       -1.10884945126043
C           51.83607198753440       -2.11216489023611       -2.01457573711831
C           50.86311012445236       -2.77884739388857       -2.68824365970265
C           49.60597855478467       -2.29367448096194       -2.19783016478238
N           49.82907523686488       -1.34647556536904       -1.24258346356346
C           48.34581210198491       -2.73650355916436       -2.63927679033083
C           48.32843510379785       -3.73333198353422       -3.63989430821656
C           48.31708049314956       -4.59208761787027       -4.49741897969781
C           48.30953356055308       -5.59384405162668       -5.49435941882564
C           49.50328827303866       -6.10977825124944       -6.01304544684977
C           49.44284281927502       -7.09099706346092       -6.98620476487432
N           48.29797321323075       -7.57576645149068       -7.46088288271804
C           47.15888684466941       -7.09023151225604       -6.97338509342245
C           47.10981540887205       -6.10892495708581       -5.99956517070021
C           47.10224888824576       -2.27465158785232       -2.16949136918051
C           45.82223930549919       -2.73740083490910       -2.62784910820163
C           44.87949989680075       -2.05076541928248       -1.93336872351227
C           45.57619641007810       -1.16242141703812       -1.04546527994745
N           46.92377781263465       -1.32449476309821       -1.21447873491612
H           43.88841289736568       -0.26982375769596       -0.14634739741821
H           43.87647288623662        1.59753567131787        1.70757264657828
H           45.79600491643535        2.93955923402451        3.03383657565081
H           50.61931707319656        5.17878152936121        5.19236256951202
H           50.53577786187122        6.96434540487690        6.92337818694638
H           46.42555624624700        6.96524662388530        6.94806188026388
H           46.32076394364982        5.17980569991055        5.21786512145000
H           51.09937166729832        2.87864344551230        3.00595463285916
H           52.97634453902008        1.50567387238838        1.65229735096392
H           52.90490143122312       -2.21308877436322       -2.11606277782017
H           50.97820792310191       -3.53343204206338       -3.45010558089426
H           50.45792198607304       -5.74365959467931       -5.65483978238723
H           50.35353173758082       -7.50902761152797       -7.40562148521676
H           46.24329879107156       -7.50769346513980       -7.38257478482583
H           46.15940428385425       -5.74234807308771       -5.63079541983731
H           45.67547222511871       -3.49168868664178       -3.38478397403298
H           43.80619257279882       -2.12987577155925       -2.00729624993889
Zn          88.90567042316714       -0.38180847474384       -0.23601751357892
C           92.32502413263597       -0.40160876716844       -0.26480441438447
C           91.69716556121921       -1.60726616647569       -0.55267059596610
C           92.36790671547526       -2.84030226138143       -0.85700403723187
C           91.40532463403900       -3.77271033789740       -1.07293397717483
C           90.13905850150960       -3.11692260672227       -0.90240638632500
N           90.34513128470104       -1.81074798659535       -0.58907865604605
C           88.88224499243123       -3.73514545820051       -1.03908053966258
C           88.86949180381518       -5.10665130292678       -1.37685175969641
C           88.85161638275582       -6.28324106151818       -1.67395131966307
C           88.82359204414227       -7.65249187721293       -2.02311967778386
C           87.61094567167443       -8.33358426226694       -2.18425426794801
C           87.63461037891221       -9.67307292736903       -2.52865212034687
N           88.76100974796799      -10.35628774687063       -2.71693464477041
C           89.91785768364190       -9.71623357449646       -2.56540882027111
C           90.00367005768403       -8.37869333352406       -2.22273273390726
C           87.63536224778198       -3.10523919650319       -0.87323817695497
C           86.36433862019649       -3.75367605737473       -1.01523043981744
C           85.41115990435360       -2.81361248315027       -0.78549368098109
N           87.43999538185346       -1.79244242660185       -0.55996082399393
C           86.09409029411849       -1.58534006216584       -0.50182281147699
C           85.46176480474023       -0.35901192411481       -0.22117224556530
C           86.11152182427261        0.85785956518858        0.05845513808649
C           85.44706175613587        2.09449852521736        0.34936154973908
C           86.41444419614527        3.02119093801954        0.57484932359489
C           87.67572733953605        2.35634675433441        0.42137911500156
N           87.46052844987429        1.04680009211443        0.10741412639014
C           88.93262322637095        2.96909576020506        0.57449390586972
C           88.94899730425475        4.33985904400305        0.91525842911445
C           88.97348469640720        5.51605730350421        1.21364756092046
C           89.00999295863218        6.88538765428610        1.56186265523913
C           87.83422317398204        7.62032772055364        1.75490508052092
C           87.92790798817053        8.95786294452559        2.09550141735895
N           89.08858157593849        9.59002025338240        2.25102653790078
C           90.21093755098062        8.89839979652031        2.06946489324505
C           90.22670239953837        7.55808204573631        1.72774551257110
C           90.17984415236569        2.33552309716143        0.41800426951087
C           91.45623623730216        2.97617765439780        0.57027666039850
C           92.40454389846710        2.03431932679529        0.33350914580731
C           91.71510020279180        0.81006602382787        0.03595282297695
N           90.36613624213743        1.02846092085959        0.09622533564239
H           93.41068128989225       -0.40712922648214       -0.27481102011739
H           93.43873245056781       -2.96447695846614       -0.89720386363626
H           91.53005339893910       -4.81402648619412       -1.32501341449756
H           86.67027882659013       -7.81564132061847       -2.04082641514539
H           86.70850396845552      -10.22533472277415       -2.66034196691519
H           90.81752900461100      -10.30328892296462       -2.72657158979845
H           90.96758881903020       -7.89722841678846       -2.11009023474382
H           86.22697833181431       -4.79496918514103       -1.26002528030091
H           84.33966303268879       -2.93350456902144       -0.80527660246872
H           84.37722718725981        2.22761754529457        0.37707101957557
H           86.29338148498101        4.06378389950856        0.82285150236092
H           86.86750414815779        7.14541009894368        1.63865167394586
H           87.03171068266082        9.55165427502804        2.25122198990296
H           91.14030390497010        9.44444549508668        2.20421063557779
H           91.16441710920800        7.03332329551013        1.58972425454327
H           91.59740363866537        4.01466377253637        0.82528563164185
H           93.47719580103767        2.14663129070120        0.35586020022742
C           54.46780458854447       -0.39870725371600       -0.25199192438896
C           53.24746048821648       -0.36688797773103       -0.23178324664488
C           55.81997703092237       -0.44061073598952       -0.27559176665840
C           57.03986253572834       -0.48357880447737       -0.30535323829034
C           67.97496180314634       -0.64156789230863       -0.41372618398666
C           66.75252807842412       -0.64118607552404       -0.42244172627530
C           69.32466998456829       -0.63982552819471       -0.41079161829428
C           70.54708546374091       -0.63182944311184       -0.40437240159266
C           81.47901936233430       -0.39470193129444       -0.25639486057994
C           80.25835351832720       -0.42246149965598       -0.27909503026960
C           82.83118424749169       -0.36856951935221       -0.24046222735378
C           84.05209647859763       -0.35373348572626       -0.22507505406335
Zn          61.89790902809075       -0.61429204528431       -0.40102887388355
C           58.44869179564378       -0.52868099319869       -0.33704008966340
C           59.08967990652980        0.16213374094476       -1.38257880600639
C           58.41585749836068        0.88652665389412       -2.41956026883773
C           59.37549873075937        1.39645016190787       -3.23490410259966
C           60.64068949954883        0.99042906848569       -2.69707703921692
N           60.43681707813014        0.24309658056441       -1.57528393430687
C           61.89256501342997        1.32343649408333       -3.24634968565691
C           61.88612762395195        2.08912189883533       -4.43376359343512
C           61.87064291290495        2.72998616427204       -5.46429173894873
C           61.84807583812201        3.46555381842236       -6.67106973264216
C           63.03188946368371        3.84662531607179       -7.31377015298679
C           62.95282831926072        4.55708835183136       -8.49816986192559
N           61.79905037679150        4.90130172163863       -9.06483872835112
C           60.66913908402587        4.54418804678121       -8.45931518255177
C           60.63869632811682        3.83331689081576       -7.27301087948966
C           63.14644928452789        0.95894001769780       -2.72434137699059
C           64.41023542976042        1.33273478016401       -3.28739848848737
C           65.37287104258665        0.79173802651623       -2.49538823795768
N           63.35450567077023        0.20093367764034       -1.60934526285992
C           64.70178609949804        0.08078452340974       -1.44775419077976
C           65.34675332969894       -0.63942579845236       -0.42209677158836
C           64.70260268407938       -1.36766352710758        0.59854616972163
C           65.37535194977826       -2.11957021020023        1.61601185851060
C           64.41406735265862       -2.68518486602804        2.39219866281585
C           63.14938202464579       -2.27694765210761        1.85581052113344
N           63.35558492835544       -1.47867390727854        0.76887006247452
C           61.89682808206065       -2.64387531218001        2.37966768108853
C           61.89710486308218       -3.50913619713257        3.49658796857506
C           61.89754457717794       -4.26932752349125        4.44263698708794
C           61.90473500400322       -5.16638990113253        5.53490889424807
C           60.71326592582499       -5.61170948383377        6.11949262313931
C           60.77728368860475       -6.49865792282780        7.17925230212115
N           61.92333204112212       -6.95548761820030        7.67791837458236
C           63.06048008240472       -6.53563710980533        7.12882335179593
C           63.10595507747049       -5.65043626197844        6.06683012662367
C           60.64395976137580       -2.23319551612381        1.88887221786915
C           59.38006460195348       -2.59772116068229        2.45852129633889
C           58.41915751749364       -1.99963218608515        1.70700903374935
C           59.09103767367013       -1.27171462588678        0.67112865497832
N           60.43819655032166       -1.42904365875681        0.80751035977972
H           57.34561977804909        0.98528135257587       -2.50741253184361
H           59.24569991494815        1.99666252705697       -4.12142362567250
H           63.99331180801307        3.58630711346602       -6.88773261142918
H           63.85543834203629        4.86452377549065       -9.01847746842328
H           59.74587438638422        4.84044857352634       -8.94899233531127
H           59.69535436022321        3.56189835589906       -6.81460375935533
H           64.53716470149266        1.93399227360206       -4.17366548679665
H           66.44333506509633        0.86120911042102       -2.60607894941423
H           66.44592323713367       -2.20196239916923        1.71596294643196
H           64.54263120158804       -3.32069324771616        3.25396949557518
H           59.75755052077083       -5.26622367673453        5.74415941857024
H           59.86844598170940       -6.86167813776865        7.65059152498880
H           63.97714801201533       -6.92792051805254        7.55986812453442
H           64.05455430262369       -5.33528263262014        5.64914481716980
H           59.25215807736365       -3.22875208307339        3.32367451832361
H           57.34924518154785       -2.04551597175726        1.83386286861634
Zn          75.40212831483507       -0.56726840463081       -0.37122425050212
C           71.95280735817980       -0.62180001621710       -0.39996216693692
C           72.59434946132285        0.12410332258696       -1.40948961798174
C           71.91923227016561        0.84823631693923       -2.44547046697786
C           72.87857742534879        1.41813409034782       -3.22098011074163
C           74.14432706398009        1.04954589593801       -2.65897233722067
N           73.94069257577046        0.26440158287741       -1.56202200604022
C           75.39555915762527        1.44694277533858       -3.16327272440999
C           75.39633205710132        2.23743999054702       -4.33431533776220
C           75.40143704040678        2.89915936036184       -5.35165826606633
C           75.40760731929653        3.65367398228818       -6.54688751627474
C           76.60659402614678        4.07532193189860       -7.13391609610496
C           76.55792873980886        4.80285406331996       -8.30951941085379
N           75.41981750272602        5.12693117360399       -8.91825677983100
C           74.27573164146385        4.73124454677521       -8.36577071702809
C           74.21495753484294        4.00044154974364       -7.19277994789876
C           76.64882912372791        1.12187118216127       -2.61281116133912
C           77.91080152297336        1.56456118980185       -3.12857331526152
C           78.87330462661232        1.03969639433797       -2.32606889569759
N           76.85720622756901        0.34092235480329       -1.51492963336841
C           78.20432144814241        0.26941681120020       -1.31955546672410
C           78.85000660877020       -0.46488488445581       -0.30685367607022
C           78.21186477044722       -1.24996249302297        0.67210201129814
C           78.88840488151165       -2.00806819569650        1.68276334361657
C           77.93076192003346       -2.62410637866657        2.42389309688217
C           76.66427490533088       -2.24253573699593        1.87165000339851
N           76.86534055393598       -1.41026931846434        0.81066134206321
C           75.41367933324602       -2.66264445359878        2.36063004904764
C           75.42314252376931       -3.54212685272590        3.46641052714772
C           75.43960182502951       -4.30741073277181        4.40823230245433
C           75.46517683399391       -5.20709372591686        5.49812023602944
C           74.28314977675808       -5.70564547508419        6.05839053949489
C           74.36499718990363       -6.58888901384504        7.11997624825824
N           75.51984762399083       -6.99369474361078        7.64265104592172
C           76.64809357841536       -6.52345253042490        7.11648520840580
C           76.67571350180755       -5.63713216516058        6.05477211939137
C           74.15872195900344       -2.28915190598788        1.84753452984396
C           72.89638465827504       -2.71430916000344        2.37635245111070
C           71.93183502350729       -2.13981252303939        1.61069746597379
C           72.60030982372680       -1.36446481796986        0.60803986157022
N           73.94790355131362       -1.47096890475930        0.77640562484239
H           70.84854329253855        0.90623530680673       -2.56027865146621
H           72.74803602082268        2.03651353463758       -4.09483778298509
H           77.55620740342617        3.83239696110904       -6.67252659073131
H           77.47284966027944        5.14143242501611       -8.78722165903775
H           73.36594917710684        5.01212426505792       -8.88863368781662
H           73.26099477511715        3.69771955644846       -6.77816793548239
H           78.03655967385028        2.19736133602197       -3.99273970605132
H           79.94251878284464        1.15611588259975       -2.40433451177269
H           79.95888631071054       -2.05869739698910        1.80270250973128
H           78.06289432612188       -3.27803175495013        3.27121361251120
H           73.32092583257969       -5.40283633589376        5.66342839615640
H           73.46379147089299       -6.99190139833182        7.57315214557263
H           77.57231046621833       -6.87422321041776        7.56675123124779
H           77.61778669429484       -5.27974112892395        5.65670252232308
H           72.77174222035178       -3.36722407035084        3.22561638949528
H           70.86171914967642       -2.23077465403695        1.70837445206235
