228
 energy: -377.234605362231 gnorm: 0.000571111222 xtb: 6.5.1 (b24c23e)
Zn          47.05758157887745        0.00429396669116        0.00343844391666
C           43.64254191534857       -0.01161804750364        0.00532174160699
C           44.26824142422159       -1.25127631143683       -0.05196917906978
C           43.59080539898865       -2.51754677390776       -0.06627136243227
C           44.54662063798273       -3.47861936102047       -0.12132402009458
C           45.82044637650060       -2.80991094769841       -0.15308946764525
N           45.61635748448057       -1.46204303550463       -0.09785492076038
C           47.06949805583902       -3.43818545575365       -0.22017437134150
C           48.31031060338226       -2.79088388859906       -0.21607892637217
C           49.58033934175254       -3.44266854811377       -0.37154906881757
C           50.53304705725627       -2.47746443174291       -0.31607276849238
N           48.51642527821863       -1.44291347804951       -0.08572907119967
C           49.85981272717872       -1.22734099813070       -0.12633072905885
C           50.50354590095664        0.02148342230574        0.00343014999876
C           49.84912464581190        1.26472872250215        0.13050245088482
C           50.51330271686196        2.52872348620408        0.24618368609100
C           49.55192958252312        3.48524102255143        0.29748244862444
C           48.28471181691071        2.81318376593498        0.22976122541867
C           47.03722855535680        3.44641273614873        0.22901025100544
C           47.02758594240922        4.92948956661723        0.31749003369406
C           46.52731969444051        5.69380575397673       -0.73740533129029
C           46.51942645620514        7.07839515656389       -0.65884720323371
C           47.00542717908735        7.71589579066093        0.47459606896386
C           47.50183600098477        6.96244592480471        1.52970663998716
C           47.51565102614524        5.57770082518925        1.45252894430913
C           45.79509094375005        2.80631588495839        0.15185724957101
C           44.51418678171829        3.46034005596070        0.20043094120234
C           43.56696349881508        2.49129117854757        0.13873217937112
C           44.25652827082418        1.23397500686465        0.05813412637582
N           45.60322443551888        1.45827151614431        0.06771311018207
N           48.50262851579583        1.46435230374891        0.12897240806956
C           47.08050343333358       -4.92070999218455       -0.29975438661940
C           46.48489210447486       -5.58104572561470       -1.37521438853487
C           46.49608540598750       -6.96634259609271       -1.44139646621809
C           47.09692879950276       -7.70905163166279       -0.43407279210438
C           47.69101074782709       -7.05996070675393        0.63979196663339
C           47.68596971255914       -5.67490990022348        0.70666602312281
H           42.55700114046468       -0.01738144700375        0.02055772876660
H           42.51987706358687       -2.64333616179440       -0.03082012597197
H           44.40633226111940       -4.54773193054426       -0.12849337491563
H           49.72307168008750       -4.50055919422846       -0.52261595136580
H           51.59941470654461       -2.59682907531217       -0.41104993164977
H           51.58120152425661        2.66468074038705        0.28201776958015
H           49.68858479356282        4.55238647408689        0.36647195839764
H           46.15769385269624        5.19749874133833       -1.62795608306830
H           46.13295981550198        7.66224651305213       -1.48701592209553
H           46.99706810231327        8.79830396499156        0.53561840882619
H           47.87952769651481        7.45561519675930        2.41863624402674
H           47.89279891717582        4.99057671499643        2.28258584286182
H           44.36434041263903        4.52493101439657        0.28405593456886
H           42.49425112484357        2.60544297562690        0.15272871716252
H           46.02642918886899       -5.00290340523124       -2.16988185790374
H           46.03417135247020       -7.46839947784563       -2.28437767247745
H           47.10254668613081       -8.79195731716422       -0.48605707947977
H           48.15985368462671       -7.63522652928389        1.43058813133657
H           48.14001218232954       -5.16978759128553        1.55206104201036
Zn          79.87019943845019        0.07507885222416        0.01875290131772
C           83.28546067710070        0.10079071832177        0.01355153649418
C           82.65603803922392        1.33985057558663        0.00758655693863
C           83.32978176560727        2.60772408111465        0.04123455325529
C           82.37106376943537        3.56735498062074        0.02653236507129
C           81.09908596326767        2.89655784109900       -0.02711428254531
N           81.30717478687203        1.54821938004215       -0.02601858003814
C           79.84805468431985        3.52340925413378       -0.06279276471548
C           78.60889416947160        2.87332506684846       -0.07744411145892
C           77.33629911732467        3.52770287745354       -0.19662399806153
C           76.38627469683271        2.55853558406697       -0.17517605004015
N           78.40682703660934        1.52050056661189       -0.00224806274693
C           77.06371673654718        1.30321606089839       -0.04323647880137
C           76.42386274458133        0.04817539085462        0.03573261206144
C           77.08238856879942       -1.19763401702446        0.10395402155131
C           76.42235728560895       -2.46752321050846        0.16559659304289
C           77.38655026218916       -3.42258222109920        0.16843222309925
C           78.65156206419424       -2.74442467301755        0.12539810784526
C           79.90081053059458       -3.37334561496847        0.09190426415546
C           79.91486488044120       -4.85889124421233        0.11241712945445
C           80.41416106030871       -5.57271628772996       -0.97772743800392
C           80.42524542182291       -6.95944555624289       -0.96295862489048
C           79.94355822446221       -7.64953280582009        0.14116448733051
C           79.44871109356616       -6.94653862720355        1.23125328047905
C           79.43171711466303       -5.55975507453259        1.21787940337397
C           81.14101991206249       -2.72691798605711        0.04124603872758
C           82.42376791322198       -3.37886428099086        0.05987819211445
C           83.36823870802678       -2.40536339792599        0.04032676457437
C           82.67510129708717       -1.14769022494970        0.01501218507174
N           81.32902919508666       -1.37597810071520        0.01622074568028
N           78.42944821505941       -1.39302880121366        0.08684687016188
C           79.83380215673832        5.00800314462026       -0.08294980165002
C           80.41902759441145        5.71158988288545       -1.13644789156821
C           80.40618872159250        7.09840061643910       -1.14683002099102
C           79.81423196416372        7.79933561599802       -0.10488394268249
C           79.23050072339386        7.10698381313339        0.94740029973617
C           79.23699618044400        5.72034763657906        0.95844855153101
H           84.37099695190622        0.10918242981026        0.02744535575379
H           84.40044244760202        2.73523513991434        0.07839639412295
H           82.50817045553565        4.63636863387141        0.06040236044282
H           77.19009059782638        4.59065592956466       -0.30181232708874
H           75.31899649548576        2.67915760892396       -0.25731413758406
H           75.35503835207817       -2.60796390674616        0.20069574759392
H           77.25308849811118       -4.49215281441310        0.18943469402810
H           80.78049129265953       -5.03524080821052       -1.84547175481952
H           80.81076483974240       -7.50371276240696       -1.81809939882969
H           79.95407762564402       -8.73358504886391        0.15221823582635
H           79.07467175198082       -7.48093206872825        2.09761273189687
H           79.05583750667003       -5.01225734738112        2.07513717068268
H           82.57664502245217       -4.44567958943152        0.09650224964629
H           84.44127949844729       -2.51696179332740        0.04876989677551
H           80.87086293145579        5.16616921699364       -1.95761930012349
H           80.86011042936575        7.63447600402298       -1.97304359691794
H           79.80772941321385        8.88344747756105       -0.11297536251229
H           78.76887890496468        7.64952769782053        1.76510586116390
H           78.79110135460188        5.18113197374892        1.78695241813489
C           51.91378550046150        0.02690469809268       -0.00115362652181
C           53.13246596698207        0.02940347199516        0.00056367253621
C           62.85380642863011        0.02366647617763        0.01507209630978
C           64.07253466996305        0.02619946811577        0.01922012755307
C           73.79485114426473        0.03369961292476        0.04231224736565
C           75.01353836439283        0.03914691938642        0.03626320352448
Zn          57.99544569828502        0.02615931481383        0.01560766764581
C           54.54199176131536        0.02905115506836        0.00598092267962
C           55.19340297162312       -1.22040439248054        0.08066501112652
C           54.53185978592120       -2.48188748103606        0.22624010451623
C           55.49015920096675       -3.44350930497925        0.19754530650641
C           56.75019593141473       -2.77674968569178        0.03089969837034
N           56.53590228698711       -1.42501011574760       -0.01176961105644
C           57.99195054242447       -3.41233070449490       -0.08351532762536
C           59.23509374373899       -2.77429310510204       -0.16106936266432
C           60.49439242505697       -3.43172770858313       -0.36550134213243
C           61.45380883941795       -2.47087964786923       -0.34178356408789
N           59.45071023688612       -1.42706075443858       -0.04284788451974
C           60.79290475938502       -1.21905224859286       -0.12608323241847
C           61.44558356952605        0.02381814755499        0.01588006109276
C           60.79500890735440        1.26765684935275        0.15900838920918
C           61.45796040734022        2.51855310764175        0.37403802018257
C           60.49980605475853        3.48049731763558        0.40125706633171
C           59.23932954802817        2.82453926981461        0.19944524467047
C           57.99713118179412        3.46416523507292        0.12552914007656
C           57.99617254024731        4.94735017938367        0.17792810071663
C           57.31967855562564        5.61858327330877        1.19789349033200
C           57.32171767274553        7.00434577927016        1.24797264870864
C           57.99345412204632        7.73704034300578        0.27865101527805
C           58.66642804972557        7.07733395366071       -0.74092862909435
C           58.67115390107136        5.69152209720766       -0.79101955701416
C           56.75483925454530        2.83091821542151        0.00659869220012
C           55.49666938235188        3.50105042518734       -0.15923460535369
C           54.53725843161351        2.54109493745282       -0.19999050316238
C           55.19599105985532        1.27745263241044       -0.06096081907832
N           56.53838923473831        1.47925967979371        0.03908627419253
N           59.45296756380107        1.47724517781564        0.07890913328493
C           57.98979184685993       -4.89553247169237       -0.12907025826931
C           57.30197919329241       -5.57146119131305       -1.13844412427221
C           57.30389151746760       -6.95742729011524       -1.18287068432371
C           57.98758583292830       -7.68592062432171       -0.21884374163708
C           58.67188044567071       -7.02173819753251        0.79034960508661
C           58.67590821550449       -5.63578681349186        0.83524953441159
H           53.46979298793747       -2.61202512097527        0.35148055871137
H           55.35670403856047       -4.50854315336731        0.29816273109420
H           60.62638085585257       -4.48982918082864       -0.52449070696349
H           62.51606739095970       -2.59420343876843       -0.47400364550726
H           62.52066917769375        2.64077634131046        0.50332033716960
H           60.63317169196515        4.53846865533684        0.56002791889973
H           56.80479357846038        5.04766434497311        1.96274869601942
H           56.79715727726285        7.51464154440305        2.04831730075547
H           57.99242068934176        8.82048858460536        0.31770012564033
H           59.18975815278709        7.64509168859250       -1.50240525781206
H           59.18665793565941        5.17833546845376       -1.59535028995500
H           55.36557336245347        4.56727071463001       -0.25025541150031
H           53.47599047205879        2.67373924321577       -0.32798854859604
H           56.77856516013845       -5.00414639819862       -1.90012340020916
H           56.77014389309874       -7.47109560250865       -1.97495692370277
H           57.98716159288714       -8.76950983616157       -0.25393626521946
H           59.20458593983435       -7.58613738734740        1.54775525986598
H           59.19980903362129       -5.11923794789110        1.63199273748216
Zn          68.93160866419127        0.02878046813730        0.03372131936602
C           65.48077404522734        0.02715303692750        0.02137709577439
C           66.13262605374646       -1.22098258604474        0.11056091243139
C           65.47036723149692       -2.48098549422652        0.26675668186836
C           66.42976693365489       -3.44199116028372        0.25595951136325
C           67.69035245700238       -2.77626605422722        0.08947653130078
N           67.47533708838067       -1.42525974177015        0.02721735140624
C           68.93415316096211       -3.41042839298161       -0.00421866856261
C           70.17638885923205       -2.77115313759237       -0.08667949260649
C           71.43697455330759       -3.43205680855026       -0.27077810130470
C           72.39516561067376       -2.47007054558130       -0.26327490140299
N           70.39056332962771       -1.42175053015452        0.00464229619440
C           71.73344574216981       -1.21412349663882       -0.07682656624530
C           72.38521065991179        0.03132932058399        0.04447913124303
C           71.73137792911407        1.27581591981830        0.16708993616310
C           72.38993418547535        2.53140326178302        0.36683268321881
C           71.43027033789517        3.49210644178965        0.37093559339356
C           70.17239052563524        2.83065394891262        0.17142727939215
C           68.93007932962210        3.46840747200659        0.07901002299418
C           68.93015240964024        4.95242540373319        0.09608320246449
C           68.24931745183478        5.64992095734536        1.09524181202187
C           68.25204544606241        7.03656405812229        1.10963997645007
C           68.92899615139351        7.74387312152072        0.12519398266680
C           69.60693624271646        7.05791142452222       -0.87354457986059
C           69.61089186999983        5.67131180120866       -0.88796052931417
C           67.68817400985478        2.83272388810710       -0.02838398403231
C           66.42839334428106        3.49737861099987       -0.20470218798670
C           65.47002653743702        2.53543769545734       -0.22429795932977
C           66.13207635359690        1.27595363619345       -0.06362761293849
N           67.47393016045608        1.48140478930630        0.03024076985628
N           70.38907466560966        1.48199320456358        0.07561204175469
C           68.93632446667915       -4.89446686860867       -0.01582439697293
C           68.26435735029257       -5.59667378117174       -1.01760999993744
C           68.26831474738887       -6.98332523169922       -1.02619054335616
C           68.93783840746197       -7.68599592874040       -0.03342009468424
C           69.60695778157458       -6.99538269592642        0.96789255695877
C           69.60954658932471       -5.60873163886718        0.97666415818174
H           64.40712782684126       -2.60986447112680        0.38515362840818
H           66.29690043840966       -4.50604520971642        0.36746497961104
H           71.57075362202767       -4.49325068126585       -0.40590958586929
H           73.45772278031696       -2.59622452862518       -0.38742622841381
H           73.45091691248243        2.65778492025716        0.50392405589287
H           71.56103449225887        4.55267058317732        0.51369124675427
H           67.73058171964288        5.09925852455276        1.87225457471669
H           67.72391358250533        7.56754011289092        1.89399707579838
H           68.92824648824102        8.82797051280932        0.13631573617451
H           70.13471523066275        7.60562288077135       -1.64657962008453
H           70.13043599795903        5.13734913058179       -1.67597752011576
H           66.29549323713891        4.56141561361856       -0.31629693023384
H           64.40776606230988        2.66352234883841       -0.35165779497758
H           67.75156518237949       -5.04953649244789       -1.80095423067556
H           67.74692982712229       -7.51804513671962       -1.81238963974223
H           68.93800918141930       -8.77012499326640       -0.04004212703220
H           70.12883533626663       -7.53934194413592        1.74754579248330
H           70.12195910413917       -5.07115730832259        1.76682125497439
