134
 energy: -219.241251337986 gnorm: 0.000424926775 xtb: 6.5.1 (b24c23e)
Fe          18.91425392633382        0.06173154338174       -0.02000951717824
C           15.53782685912693        0.14462459402040       -0.10604742600376
C           16.17622819504145        0.89925454511842        0.85781084806711
C           15.49539875282734        1.69039134255785        1.83715519011686
C           16.44708949965710        2.39019939193097        2.50079630596557
C           17.70719732260703        2.03896015202989        1.91252410521586
N           17.53180937332719        1.07946984313156        0.95247302481978
C           18.91731795826917        2.65787762534211        2.21848718204004
C           18.92313708246638        3.79247350207304        3.16451015091377
C           18.13061635123191        4.92201167442596        2.93617620039713
C           18.14839178781333        5.98787049500566        3.81479994499587
C           18.95156561929767        5.95203695011197        4.96193657491418
N           18.97317544809637        7.06500728199877        5.78730190138873
C           19.39461960449544        6.93065543362285        7.17495982898628
C           19.74849244475713        4.82683451864721        5.19418204238495
C           19.73170490607724        3.76782224945880        4.30350194644044
C           20.12238386981835        2.25543029603506        1.65268971413189
C           21.37331243977447        2.92261298187365        1.85633488471179
C           22.32271769019804        2.16879986594457        1.24865035036133
N           20.30455323290859        1.13358596016898        0.88145799210166
C           21.64961829270523        1.04851818601388        0.67232322216595
C           22.31041135666715       -0.03184703658131        0.07452215555484
C           21.62897917073206       -1.09596281056271       -0.52976451213833
C           22.27783196460015       -2.25215412693721       -1.06145833894673
C           21.31976627362800       -2.98651584223819       -1.67895870016724
C           20.09008694105881       -2.26570809528713       -1.53574009787835
N           20.28740245653633       -1.14207262169011       -0.76925438950832
C           18.89954201035688       -2.61295429373987       -2.16416703094131
C           18.89597031764532       -3.75503266591118       -3.10077785751549
C           19.77411311890323       -3.79282830408399       -4.18671319120658
C           19.77741418330014       -4.85818604426468       -5.06987990310381
C           18.89478950280563       -5.92668302445987       -4.88440135391834
N           18.89458637421077       -7.04537290909346       -5.70171867395816
C           19.41736015969328       -6.95511961667920       -7.05792596994040
C           18.01958562548772       -5.89962851061785       -3.79087504881732
C           18.01696613612276       -4.82777455575396       -2.91955975429568
C           17.71223383194814       -1.91590846160897       -1.94697093867752
C           16.47832347967111       -2.18574295573374       -2.62613360249577
C           15.53132400729551       -1.41171395261505       -2.04255817927970
C           16.19060910727534       -0.65927031058444       -1.01914617729753
N           17.53153677860775       -0.94318598951268       -1.00246360800843
H           14.45492155214574        0.18364726069877       -0.14652220963756
H           14.42681297317861        1.69774666144015        1.98370677969795
H           16.31783736138547        3.08070102390996        3.31853873833416
H           17.51519483703372        4.97180880942728        2.04460654081552
H           17.53960732439446        6.86406360593489        3.61778234568788
H           18.15110038758124        7.64744598991770        5.68545012287537
H           20.46339027351852        6.71752568541272        7.22208566951441
H           18.84490896730152        6.13305485950114        7.68746123247249
H           19.20562059616212        7.87913331728534        7.67764069416812
H           20.38475135079107        4.77235431892169        6.06892568116808
H           20.34013839224601        2.89289787604230        4.50517758409980
H           21.50030743997498        3.85410854531388        2.38354294896112
H           23.38399515686935        2.34742297312332        1.18660449033610
H           23.32920686868495       -2.46809082899733       -0.96130540689892
H           21.42813490370387       -3.93427909626832       -2.18062558812038
H           20.44923508889156       -2.96077585623705       -4.35468980695380
H           20.46949848011652       -4.85226793614863       -5.90293951624240
H           18.03062843577810       -7.57120322704493       -5.65189247819128
H           18.95152779020119       -6.13487224289375       -7.61586551678443
H           19.20877293737503       -7.89832713768488       -7.56276220859916
H           20.49733570370983       -6.80425252684559       -7.03283062355190
H           17.34189474162961       -6.73145447221900       -3.63011626448016
H           17.34342060292698       -4.82876035983144       -2.06959611242710
H           16.36278396428762       -2.87476740610917       -3.44719187727940
H           14.47965394582105       -1.34390450060008       -2.27233133757798
Fe          29.73107055135252        0.00672374542784       -0.06537916032481
C           33.10742706188535        0.07202570858776       -0.16519884247402
C           32.46883113992384       -1.03338075848051       -0.69087717742129
C           33.14948286406646       -2.16205575536552       -1.24884926551180
C           32.19762376666835       -2.96267773257091       -1.78628270199509
C           30.93761589265828       -2.31171897092198       -1.57199318502559
N           31.11320293496431       -1.16514901253841       -0.84559027331978
C           29.72748968993068       -2.74522690349498       -2.10931144811253
C           29.72170454419226       -3.91611749654729       -3.01005804951562
C           30.51417191839190       -3.93942875467915       -4.16225394454217
C           30.49663317900382       -5.02935314808081       -5.01081199048808
C           29.69380205699498       -6.14129790156808       -4.72555675908891
N           29.67248508814052       -7.18942257283176       -5.63182917023378
C           29.25086946591138       -8.51448784883263       -5.19862766951893
C           28.89699242138590       -6.12278293674793       -3.57669890160567
C           28.91345791096552       -5.02250418242256       -2.73748643222632
C           28.52261379998483       -2.10465564368618       -1.84069406847975
C           27.27176162664948       -2.44846969670092       -2.44776198488440
C           26.32253105435353       -1.69024218203246       -1.84529722270973
N           28.34062553650315       -1.10694666234842       -0.91441483592427
C           26.99569631973345       -0.88355217357487       -0.87763637544319
C           26.33494054535279       -0.06440539278093        0.04630433139007
C           27.01641125582884        0.75744726405459        0.95293230843947
C           26.36759437835073        1.52870470453557        1.96518840765684
C           27.32583148814167        2.29089533327727        2.54768047345378
C           28.55560715056609        1.99345260116616        1.87581277090234
N           28.35814042655385        1.00057577697113        0.94621079429151
C           29.74638433577432        2.68198062262047        2.07818259933008
C           29.74994118069337        3.84510825589283        2.98846679763996
C           28.87136701965665        4.91282447967540        2.78855232930593
C           28.86777234795277        6.00716069507589        3.63550358617047
C           29.75064193618281        6.05972043050197        4.71850751350696
N           29.75061043991510        7.10163599992961        5.63169775571069
C           29.22779636949277        8.40529578426028        5.24707688679820
C           30.62628631113715        4.98698289509172        4.93057668935251
C           30.62912547333188        3.90271309153196        4.07473298298839
C           30.93367970278867        2.31782537102163        1.44532932162778
C           32.16769804163398        3.03932366314112        1.56046098184912
C           33.11442818616150        2.30117487523521        0.93170575780455
C           32.45490225971781        1.13849551118783        0.42042660414454
N           31.11407649362783        1.18407679906627        0.70171045334400
H           34.19031499812274        0.10298032284418       -0.21254939122056
H           34.21806897723086       -2.30669870614204       -1.22424170148116
H           32.32667955673190       -3.91166988379398       -2.28121032014771
H           31.12934202326023       -3.08000274200460       -4.40530015980590
H           31.10532063209961       -5.02801165605655       -5.90894894346243
H           30.49459930637881       -7.21685267147213       -6.22241508742298
H           28.18198108901811       -8.51406738250406       -4.98088557212982
H           29.80016530350606       -8.84097529774835       -4.30827903853553
H           29.44030258198994       -9.21167891102319       -6.01477496270499
H           28.26110649951008       -6.96483953859855       -3.33262682160102
H           28.30504012946215       -5.02864062392177       -1.83962582817004
H           27.14474227430907       -3.16639972114748       -3.24162033186022
H           25.26134978073246       -1.66804331292872       -2.03363914812528
H           25.31610394051248        1.47862545155975        2.19733951813332
H           27.21747744076571        2.98704126123429        3.36333782147219
H           28.19613700934221        4.89494399141461        1.93999188510519
H           28.17525750649573        6.81851698902906        3.44810967442296
H           30.61458996469551        7.16806344716935        6.15566549820532
H           29.69385540416216        8.77047095886410        4.32482874363479
H           29.43607239231463        9.10411745987101        6.05718710602767
H           28.14786380843602        8.34772592446906        5.10502846230339
H           31.30416649650757        5.01190034895926        5.77727670702655
H           31.30299975825881        3.07370665589230        4.26113818930979
H           32.28350828827609        3.99068909956398        2.05415940458646
H           34.16606808458526        2.51061697063594        0.81511722037564
C           23.71353259001075       -0.04917620853095        0.07737553386279
C           24.93181646770362       -0.06407174868401        0.06419547957667
