244
 energy: -445.031543873840 gnorm: 0.000529917458 xtb: 6.5.1 (b24c23e)
Ni          51.94861123043438        0.00694664092322       -0.07157040691142
C           48.56972563491141        0.06460576105649       -0.32882954071348
C           49.23551213011922        1.27065906531755       -0.25775975632681
C           48.57493117742990        2.54041044038650       -0.26799374750446
C           49.52288443831684        3.47321303284672       -0.01737359144289
C           50.76644070221271        2.77396755087470        0.12774812135042
N           50.58257697406101        1.42508111535065       -0.04386115032879
C           51.96065291997466        3.37830300797489        0.49970973961160
C           51.96971008512049        4.83712129500467        0.76277666834791
C           52.23738641859178        5.32258762349565        2.04570915261592
C           52.25275104752675        6.68314160638982        2.28623425317275
C           52.00503051762575        7.58806954189105        1.24880413587018
C           52.03585994105139        9.03538415602753        1.52972493223852
O           52.26980764537601        9.50077349120938        2.61547895358359
C           51.73694494531301        7.10306465691902       -0.03334756897226
C           51.71779548793068        5.74036064782558       -0.27287713238134
C           53.15447097102807        2.67787366174978        0.61476007130053
C           54.40700442076563        3.28853498007968        0.94313778362750
C           55.35848285639393        2.33728258802544        0.78647400429366
N           53.33768371528822        1.35295683094476        0.28897483704736
C           54.68878068543807        1.15001469480618        0.36104111968196
C           55.35716643238533       -0.02255042160631       -0.00275400386374
C           54.67975776888242       -1.19586130823812       -0.34471179049455
C           55.34002237747863       -2.40885492085336       -0.70808171910659
C           54.38172251743664       -3.36129518831077       -0.80648509524984
C           53.13485541061492       -2.72370168817817       -0.51074456825985
N           53.32549782000704       -1.38231271565888       -0.27332785651115
C           51.91867964515930       -3.39329892729212       -0.44979664631214
C           51.91845648528519       -4.86764944779409       -0.58281638040177
C           51.23046190635816       -5.48752343914355       -1.62951621118098
C           51.23405859480222       -6.86582416833377       -1.75101614986804
C           51.92186899946730       -7.65227906167910       -0.82394591418480
C           51.93602709896009       -9.12348555654451       -0.92664873472446
O           52.50646792115674       -9.84212222635425       -0.14685204620801
C           52.61108300209658       -7.03212751350773        0.22341864861046
C           52.61272574892424       -5.65569761696911        0.34043974808679
C           50.70777119863818       -2.73122489856275       -0.29044279141202
C           49.43290154821521       -3.38540690609517       -0.23415444560378
C           48.49278480139209       -2.41151818677792       -0.23328745101196
C           49.19358680961013       -1.16402035762053       -0.25999451452293
N           50.55050535726022       -1.36829871502098       -0.25575091027026
H           47.48968567239897        0.08345964579016       -0.41568799251617
H           47.51728219358134        2.67756967002495       -0.42704630652884
H           49.40105461661310        4.53994125358266        0.07734611775542
H           52.42021714523867        4.62278637560031        2.85325477491778
H           52.45619688107494        7.06923005499906        3.27929487333876
H           51.82509746205960        9.67582135952894        0.64687787285303
H           51.54658464117341        7.79839743879382       -0.84441686599478
H           51.52332185688191        5.36642851400657       -1.27175748223024
H           54.53513181610612        4.31760873160520        1.23620952125742
H           56.42195485438629        2.42037864537186        0.93923288536926
H           56.40181437871119       -2.50645515155483       -0.86312288613736
H           54.49736240238962       -4.40048657105724       -1.06746516801835
H           50.70723821110838       -4.87925117952946       -2.35868599507046
H           50.70185631628317       -7.33861469558498       -2.57002830042734
H           51.36878570109835       -9.52569892692820       -1.79287590534237
H           53.14123358464563       -7.65100523301649        0.93934187943496
H           53.13928904581326       -5.17772599464259        1.15879175745208
H           49.28868617006679       -4.45304503205010       -0.20132321625390
H           47.41915897857143       -2.50888653883041       -0.20927120724466
Ni          84.49584109370016       -0.04996666002546       -0.10075993203694
C           87.88003500298973       -0.07767970208779       -0.39389147146570
C           87.22211842974041       -1.28937364133528       -0.39359536069641
C           87.89714162663937       -2.54876545370528       -0.47344263329296
C           86.94452601946534       -3.50533652945598       -0.38390175358974
C           85.68540458591171       -2.82800744533502       -0.27357372355173
N           85.86695229906664       -1.46772029937609       -0.26999152122000
C           84.46415205722988       -3.48021306497199       -0.16843749323230
C           84.44358347820629       -4.96219971924279       -0.17248388510408
C           83.98876107968573       -5.66335091775652        0.94805730977638
C           83.96263114481441       -7.04467673885331        0.94253262898420
C           84.38606823499941       -7.75583842539119       -0.18512147551154
C           84.33992912937644       -9.22959562682257       -0.16917712320436
O           83.94801283450272       -9.87613841945808        0.76820500151746
C           84.84004097666120       -7.05575387503727       -1.30534203460426
C           84.86991981190229       -5.67237529760706       -1.29770292647075
C           83.25375909863854       -2.80506693956817       -0.08435693151407
C           81.98297310741482       -3.46425650375130       -0.06834004148414
C           81.03970213368160       -2.49313848733053       -0.04956668686546
N           83.08883061775740       -1.43876781413303       -0.07667960317048
C           81.73442878010732       -1.24511983352386       -0.05282147240634
C           81.08142334779217       -0.01157498704237       -0.01307899673505
C           81.76384354831369        1.20467286001154        0.04813487340925
C           81.09952384761014        2.46693922246950        0.12390470494246
C           82.06614732587389        3.41211560171593        0.19700876471568
C           83.32062661713405        2.72316106896927        0.15914187676987
N           83.12286145250772        1.36507762259784        0.05736088860428
C           84.54891658613613        3.37023198175868        0.16859952651381
C           84.56683140436486        4.84680328135602        0.29630597577005
C           85.04647555167757        5.63861614046280       -0.75027663181697
C           85.05744522028823        7.01758547694175       -0.63673819838076
C           84.59410471078264        7.63086887031111        0.52946199259229
C           84.59960512105297        9.09841217553333        0.67759055963590
O           84.21957684944806        9.67163849914026        1.66581815950139
C           84.11579741920140        6.83792580337828        1.57769405945298
C           84.09884195863474        5.46119421803484        1.46125013165940
C           85.75614501663449        2.69765266991113        0.03400692361105
C           87.03421063122607        3.34796815179707        0.02666710575045
C           87.96372267457166        2.38221671682533       -0.15719509214686
C           87.25509695464389        1.14150534094447       -0.23857470269820
N           85.90314279992964        1.34107659866141       -0.11231521938149
H           88.95920723186963       -0.08603385342845       -0.49287314928204
H           88.96488178479845       -2.66445979623315       -0.56960345473498
H           87.07062389656632       -4.57571896895713       -0.38484388920522
H           83.66821673888909       -5.11419813402470        1.82612641501478
H           83.61465587383000       -7.59702609898094        1.80881278170384
H           84.70021903247648       -9.70729886404177       -1.10511824810864
H           85.16683294960272       -7.59977123909404       -2.18558148424624
H           85.20897673936743       -5.13106986356076       -2.17374730049591
H           81.84052748922012       -4.53228307532882       -0.08475061875254
H           79.96727782890143       -2.59863731864031       -0.03041890388130
H           80.02982174981740        2.59845440352187        0.11719758871055
H           81.95072406147143        4.48196393708851        0.25477274789392
H           85.39570353727784        5.16505432971318       -1.66089601882170
H           85.42587902347934        7.62566619849455       -1.45651959395321
H           84.98605505902530        9.64456872409206       -0.20909301993572
H           83.76013604570123        7.32335197804960        2.48016755433931
H           83.73552812400825        4.84797696720842        2.27812427618107
H           87.18716221611251        4.40737673409446        0.15269290733328
H           89.03579232600688        2.47857836014206       -0.22104012630122
C           56.76617400519535       -0.02772950400098       -0.00311897330803
C           57.98264888863265       -0.03565713999318       -0.00452502910605
C           67.60782303785120       -0.04402439490344        0.02435120356228
C           68.82381387875793       -0.03375445991272        0.02343421887939
C           78.45586102048330        0.00649210449574       -0.01289493693444
C           79.67170354769549        0.00286258598278       -0.01105409527325
Ni          62.79669677571427       -0.04193008907753        0.00631744351033
C           59.39083048383052       -0.03824967563386       -0.00288130534771
C           60.06913761651201        1.18285340090479        0.06778970571126
C           59.42238088016931        2.45549848926209        0.07218251561191
C           60.37758042544495        3.37924512950206        0.34193517392825
C           61.60630683368408        2.66517212924717        0.50756775304893
N           61.41469488837568        1.32306358819728        0.27420576623656
C           62.79589196447736        3.23791318378193        0.94380439073660
C           62.79487288630106        4.65728595165958        1.35859294852846
C           63.65070235864654        5.57670629636535        0.74336942674914
C           63.65586034422979        6.89954607984997        1.14100048791345
C           62.80831825024020        7.33420561679777        2.16540078024381
C           62.84238716637334        8.74951012745717        2.57892219431763
O           63.57261084509796        9.57119389635760        2.08737431406348
C           61.95040973594620        6.41805602708821        2.77851537811240
C           61.94266417808568        5.09416197034176        2.37715421509650
C           63.98748385327212        2.52479141187779        1.00737029535215
C           65.21948397867592        3.04848406550421        1.51378195433092
C           66.17568176505716        2.12497953373277        1.24753983813127
N           64.17839784794951        1.26103758861569        0.49810414652049
C           65.52449555336466        1.03663228764722        0.59149696159709
C           66.20030909140021       -0.04640529856874        0.02219402582901
C           65.52756805279989       -1.12885992644538       -0.55166813844602
C           66.18223869040993       -2.21922920463835       -1.20097789534750
C           65.22584886953028       -3.13921831434793       -1.47846734124885
C           63.99004360754058       -2.61132795203812       -0.98594775777569
N           64.17991233280331       -1.34925286076780       -0.47201334847082
C           62.79487703451981       -3.31926682312668       -0.93866275321812
C           62.78807604644550       -4.73628063333685       -1.36256700167607
C           63.62164679975800       -5.66799006986831       -0.73712868437811
C           63.61606911084377       -6.99273915117642       -1.13622694076626
C           62.78000415554516       -7.41159178403696       -2.17380655904652
C           62.75758089421537       -8.81665617307547       -2.62273687796235
O           62.05562996928560       -9.22132070485150       -3.51332736010844
C           61.94664132631933       -6.47955342772827       -2.80089982565234
C           61.94806823628657       -5.15824330244689       -2.39813491575141
C           61.60339817465159       -2.74408070243575       -0.51095665742543
C           60.37172298392771       -3.45594000067836       -0.35756515597017
C           59.41757764829495       -2.53154991096550       -0.08719985216472
C           60.06714195258495       -1.26032339393386       -0.07256305251956
N           61.41373712675114       -1.40275772859197       -0.27181883593345
H           58.37192080138674        2.61048573324077       -0.11170415927397
H           60.26938364217569        4.44895131669845        0.41686619292281
H           64.29924330799284        5.24624463215666       -0.06010968405398
H           64.31464192625754        7.61914015712557        0.66683789062154
H           62.13186350179082        9.00412200162243        3.39378238241552
H           61.29109856388926        6.74621410817852        3.57546848988607
H           61.28766881740787        4.38210979320174        2.86653191014166
H           65.32991068743438        3.99805978101261        2.01137662306752
H           67.22936609525382        2.16451029944178        1.47161482496400
H           67.23827099406847       -2.26223106914404       -1.41307317961197
H           65.33812255110497       -4.08907175805536       -1.97515712328511
H           64.26179176317737       -5.34887318169836        0.07767071088436
H           64.26248056873162       -7.71008716525049       -0.64117352846791
H           63.45021167076277       -9.48428129280719       -2.06762568363534
H           61.30325150153197       -6.81322613752709       -3.60795314227104
H           61.31111603308468       -4.43552624118173       -2.89551001310337
H           60.26117741488198       -4.52473955663534       -0.44097412718580
H           58.36577732078182       -2.68499075083184        0.08972660648978
Ni          73.63903724882572       -0.00957367055708       -0.00024029849753
C           70.23151393558202       -0.02664108182527        0.01846082338631
C           70.89905006337234        1.19507059208993        0.13904959327374
C           70.23407390959750        2.45691159929725        0.20797741273384
C           71.18638296595489        3.38570604933783        0.46798518315445
C           72.43020455955532        2.68466282483493        0.56717368757714
N           72.24809560005770        1.34553541379590        0.30871933351034
C           73.62829502130559        3.26935082865363        0.95913114733125
C           73.62442798416556        4.68995321974943        1.37289294665952
C           74.42026945111222        5.62442939681648        0.70290576394257
C           74.41271533274605        6.95096088676797        1.08855703423468
C           73.61411639528846        7.37315780219867        2.15641039126992
C           73.62726308126587        8.79498419788266        2.54982146810055
O           74.29396637229185        9.63320139701677        2.00001515876403
C           72.82092798895327        6.44033685130531        2.82841927943012
C           72.82439617194429        5.11295668361715        2.43824253470038
C           74.83018629483743        2.57162772200195        0.97829392487896
C           76.06865796343799        3.11496547927432        1.44640858887091
C           77.02655015748120        2.19599044307816        1.17277133478962
N           75.02087748731057        1.30483581914855        0.47683648894859
C           76.37104596033301        1.09282601810021        0.54638123149917
C           77.04706228629833        0.00478653438367       -0.01140990074738
C           76.37630594901408       -1.08727193411751       -0.56841562756153
C           77.03656361153192       -2.18141800609169       -1.20538438436252
C           76.08422289451160       -3.10658305672928       -1.47819437240254
C           74.84486518175804       -2.57658436766778       -0.99765895767692
N           75.02859697454853       -1.31093075469634       -0.49069562802860
C           73.64953852071842       -3.28525491625800       -0.97093846316620
C           73.65309497572829       -4.70240864639992       -1.39586745292907
C           74.46467092115911       -5.63462626102256       -0.74292256992529
C           74.46723196676200       -6.96045205005804       -1.13821032666577
C           73.66120612655705       -7.37992909584633       -2.19915727972902
C           73.64660319989765       -8.78653362744746       -2.64229338690188
O           72.96593659165661       -9.19427855426567       -3.54810910780367
C           72.85084635932947       -6.44700844008631       -2.85459462823042
C           72.84460590211515       -5.12438760035772       -2.45607420213100
C           72.45023552039054       -2.71400514927493       -0.56319491381003
C           71.21461031363852       -3.42769901590833       -0.45287697368515
C           70.25650140877366       -2.50949915731371       -0.17694286787153
C           70.90986921295327       -1.24149017243155       -0.11058373171452
N           72.25830656740870       -1.37802432411387       -0.29599587572876
H           69.17455718703880        2.60028233337762        0.07069796772918
H           71.06696172966072        4.45109757711244        0.57825003399795
H           75.03020298604160        5.30279550636717       -0.13370574590692
H           75.02251027048500        7.68323096909963        0.57033688568073
H           72.96334129189398        9.03741890964037        3.40661198686433
H           72.20125485897213        6.75857936696191        3.66042314542508
H           72.21791644010561        4.38859117658975        2.97022635570429
H           76.18091786530651        4.07338315165580        1.92625128906522
H           78.08431889200025        2.24754064965793        1.37331771820127
H           78.09306334253544       -2.22283038333414       -1.41478066347689
H           76.20094019699290       -4.06067434346512       -1.96562090111721
H           75.08107106360090       -5.31471147005468        0.08966220600601
H           75.09588415908001       -7.67841897896285       -0.62165379181401
H           74.32362635925027       -9.45323308109716       -2.06707039696985
H           72.23122187233476       -6.78106284445702       -3.67988214404419
H           72.22563403608770       -4.40108470260275       -2.97481698619635
H           71.10414572591210       -4.49359387427932       -0.56759703982401
H           69.20004841116287       -2.66374617613572       -0.02827056946419
