189
 energy: -335.583546676865 gnorm: 0.000645301724 xtb: 6.5.1 (b24c23e)
Zn          28.61217767297643        0.02663567485421        0.01416179567992
C           25.20273574869452        0.04946526176264        0.08976825393168
C           25.83447948933156        1.26815725144387        0.30542863558026
C           25.16234214917201        2.51854642915750        0.52310517078930
C           26.12272551364229        3.46170481087062        0.68929917389305
C           27.39467431206985        2.79582809575710        0.58663145906296
N           27.18442758485318        1.47032306579613        0.34445255049797
C           28.64756695774881        3.41309528480660        0.69157183894984
C           28.66033605094901        4.86863057839455        0.97756380830640
C           28.11011038311181        5.36330529541572        2.16247116657612
C           28.11581825333325        6.72041445823150        2.43031531601952
C           28.67041029724394        7.61418004712995        1.50928150545594
C           28.67227737887998        9.01192661472540        1.77832085459759
N           28.67284063911224       10.14207203778580        1.99550854762099
C           29.22189367546218        7.12469791500821        0.32142503697584
C           29.21777590007669        5.76569184651157        0.06331518834120
C           29.88612654161529        2.77761494558360        0.54970741916913
C           31.16668895023292        3.40839388516114        0.71505723404220
C           32.11138950655730        2.45538114472002        0.51067436466938
N           30.07752393339574        1.45255216079133        0.26223354065250
C           31.41904420452605        1.23263860962717        0.22692742911485
C           32.04847355165833        0.00144251896686       -0.04861292004303
C           31.39153147140836       -1.21923146155574       -0.30567880895725
C           32.05494384009742       -2.45062529715780       -0.61935525225897
C           31.08936211138276       -3.38853463740329       -0.79419264171099
C           29.82514808320909       -2.74016404485131       -0.57854790704856
N           30.04648016925143       -1.41923902730069       -0.29336357754292
C           28.57286871157540       -3.35742289542515       -0.67257058592875
C           28.55204379271662       -4.81121525088132       -0.96675849376038
C           27.94311988395985       -5.28984276583453       -2.12940027802818
C           27.91600099991231       -6.64509021114973       -2.40509626866346
C           28.49620736943907       -7.55316210921427       -1.51430550401833
C           28.46356259149547       -8.94901052687728       -1.79101602115782
N           28.43519836812903      -10.07755094825501       -2.01418677878386
C           29.10652714498844       -7.07980346409543       -0.34891008433134
C           29.13475080354805       -5.72257052677406       -0.08294137430351
C           27.33423322609963       -2.72367584085936       -0.51090679781360
C           26.05034361055638       -3.37272727225747       -0.55759845447433
C           25.11086307523825       -2.41794910686203       -0.34480154676161
C           25.80833097643953       -1.17693203252782       -0.15517188714702
N           27.15242749974992       -1.39639365636586       -0.25586130190282
H           24.11744149162054        0.05638537825503        0.11458445545294
H           24.09148708564429        2.64784542406575        0.53636960764574
H           25.98626846588041        4.51830080643757        0.85537804382467
H           27.68921326764198        4.67253612379273        2.88442397603015
H           27.69157930613027        7.09570970073831        3.35427743550275
H           29.64978475330250        7.81481691287359       -0.39631699941604
H           29.63488520983593        5.39125764022556       -0.86476566882768
H           31.32149972757420        4.44471716579827        0.96875782188770
H           33.18359948650723        2.56201085025721        0.55330699754194
H           33.12323520401795       -2.57251682838450       -0.70156961969793
H           31.21953659801610       -4.42561628740963       -1.05843232727137
H           27.50172886603812       -4.58806978281301       -2.82813531731904
H           27.44589723207483       -7.00792487348322       -3.31167222339817
H           29.55436164143112       -7.78100376993567        0.34554388826054
H           29.59734693987509       -5.36066299574128        0.82839420138878
H           25.89274884851260       -4.42694507549053       -0.72003053833153
H           24.03894870464050       -2.53353923743831       -0.30921061404596
Zn          65.85936111167709       -0.00190679015883        0.02897857971692
C           69.26924581551968       -0.02825495334604        0.07905862525654
C           68.63701360594354       -1.23243025781998        0.36373388971254
C           69.30859658335784       -2.47096581400951        0.64236635643283
C           68.34785224254382       -3.40218470970255        0.86433923113283
C           67.07627985648250       -2.74019402346110        0.73501534635074
N           67.28703557307624       -1.42956902561848        0.42252624741063
C           65.82318716716401       -3.34917375935857        0.87860730561016
C           65.81045850487234       -4.78788630710541        1.23993839398449
C           66.36606562398622       -5.22063710875324        2.44638726184593
C           66.36086819501543       -6.56194310467147        2.78456704347973
C           65.80132267228296       -7.50199635088662        1.91397178593981
C           65.80007105649672       -8.88380830476244        2.25552861253453
N           65.79984490730760      -10.00099049335499        2.53170577818834
C           65.24441746564013       -7.07457987530415        0.70489130911530
C           65.24811666284542       -5.73085532763446        0.37632146272183
C           64.58466162374872       -2.72005814171444        0.71034225223105
C           63.30412040811183       -3.34005531084783        0.91282035020175
C           62.35957061434839       -2.39719490538981        0.66536905801003
N           64.39346345040907       -1.41080848681378        0.35788263427790
C           63.05196672287909       -1.19088607679843        0.31823636297264
C           62.42282935840550        0.02710179008993       -0.01058716473941
C           63.07965659412507        1.23314848110396       -0.32859968352322
C           62.41584755152540        2.44933264649717       -0.69638323272379
C           63.38166166463913        3.37476345029606       -0.92707788458860
C           64.64658095142319        2.73448668442537       -0.69193705274448
N           64.42525335015941        1.43021207260136       -0.33860831213402
C           65.89927467746475        3.34233735117310       -0.83097264396520
C           65.92073656712697        4.77812050560165       -1.20326937399240
C           66.51790974560987        5.19052349510204       -2.39699121986865
C           66.54525071749038        6.52852376595573       -2.74689214349149
C           65.97712311145689        7.48574867872096       -1.90088517944609
C           66.00973636177825        8.86431139465186       -2.25376184976724
N           66.03721729463363        9.97815517704411       -2.54170007115261
C           65.37891946420925        7.07878582231275       -0.70455606863467
C           65.35036485038644        5.73825991897937       -0.36424595121967
C           67.13797727059855        2.71441839658211       -0.64870081023353
C           68.42273146156916        3.35680876919163       -0.74160431642836
C           69.36216209032563        2.41229799305457       -0.48699292425727
C           68.66392983034096        1.18480195026774       -0.22559552462289
N           67.31941309375178        1.40199064051631       -0.32568149932320
H           70.35468985279893       -0.03630248645811        0.09556289853341
H           70.37930533989606       -2.60152079002324        0.65523813495948
H           68.48373361077206       -4.44885360155856        1.08483251661337
H           66.79091800421908       -4.49355157402297        3.12930981273388
H           66.78939390284719       -6.88901128199346        3.72474052428544
H           64.81272292854965       -7.80078364052683        0.02608922140951
H           64.82685537713360       -5.40491102253676       -0.56803264952549
H           63.14929974875050       -4.36221340179065        1.21864134122492
H           61.28745057039976       -2.50006971030929        0.71830259940709
H           61.34706443336859        2.56977855104361       -0.77423228701152
H           63.25112696806919        4.39778384881942       -1.24123146920938
H           66.94981293094149        4.45013178456196       -3.06094558801562
H           67.00611912306456        6.83966611912821       -3.67712050728139
H           64.94071022036800        7.81838508020797       -0.04465773198091
H           64.89720965090734        5.42831516724453        0.57067493967425
H           68.58091889552742        4.40054965229329       -0.96110844179876
H           70.43459612091539        2.52686535815322       -0.46730917913687
C           33.45342536520314       -0.00893761632071       -0.06646825776529
C           34.67834964414557       -0.01462276211765       -0.07435648774802
C           36.02089962105560       -0.01785918424184       -0.08014052544645
C           37.25192805567067       -0.01617126787858       -0.08164532972796
C           38.58968563167083       -0.01283999059245       -0.08027403588030
C           39.82076428483695       -0.01147105688145       -0.07519215282798
C           41.16310001604524       -0.00335855194042       -0.06817825089991
C           42.38821008190663        0.00196266971324       -0.06047062339817
C           52.08221288168605        0.04628349304173       -0.03228780836818
C           53.30720285400694        0.05120619326087       -0.03253239676054
C           54.64989394147904        0.05420962390027       -0.03223063168670
C           55.88079821938089        0.05515394467497       -0.03304765315731
C           57.21887935926572        0.05380057513301       -0.03281302173185
C           58.44974534364390        0.05339291729424       -0.02954666815096
C           59.79262347620263        0.04735406628919       -0.02560932689293
C           61.01740701368146        0.03919764286211       -0.02207412758191
Zn          47.23504397106664        0.02195099400706       -0.04007893174140
C           43.79264313257237        0.00747594092198       -0.05301222199200
C           44.44429520405684       -1.16043704101941       -0.49969524353929
C           43.77414657080686       -2.35310366628549       -0.92583319513494
C           44.73580258834993       -3.24300970979548       -1.28164836214354
C           46.00335295576359       -2.59697390787855       -1.08443150278635
N           45.78929237484604       -1.33482742689001       -0.59907869665824
C           47.25351011947244       -3.17768821529578       -1.32560861042706
C           47.26083648663741       -4.55294160728427       -1.88289378574854
C           46.69930670966887       -4.81166471784383       -3.13544422563347
C           46.70715715692634       -6.09116528066092       -3.66112813880236
C           47.27492157661376       -7.14312024588619       -2.93608403385551
C           47.28244210647946       -8.46161385197640       -3.47254144143588
N           47.28937444649824       -9.52694777226074       -3.90763421450080
C           47.83519426767494       -6.89032347472877       -1.68038796255067
C           47.82915033217397       -5.60698518569078       -1.16392060663167
C           48.49700820981227       -2.57985745381948       -1.09198530999049
C           49.77170802923958       -3.16990584643922       -1.39202569660133
C           50.72300041022103       -2.27125284074791       -1.03052119155034
N           48.69655223618194       -1.33070973889181       -0.56839022385803
C           50.03935665393656       -1.12187971426203       -0.51582756552080
C           50.67737544404692        0.03892958573324       -0.03284969238116
C           50.02598732105576        1.19265942484107        0.44903840437195
C           50.69611293218471        2.34793405081132        0.96825442437057
C           49.73446311500327        3.23644931793990        1.32745274532338
C           48.46692511841155        2.63443715258869        1.02087822087644
N           48.68096476434905        1.38797651888047        0.49659374553746
C           47.21669989570979        3.22068063495838        1.24783964436831
C           47.20850157828328        4.59631000713024        1.80431863540329
C           46.63872855511304        4.85137687433371        3.05384385576657
C           46.63193842311917        6.13170388057538        3.57762156905871
C           47.19273769477304        7.18804618122418        2.85354904538081
C           47.18529340726509        8.50725722451413        3.38826508440551
N           47.17571763875978        9.57401778398915        3.81987772766101
C           47.76150086782410        6.93879248542512        1.60095916800294
C           47.77028423046108        5.65468091155582        1.08652960468307
C           45.97329609044117        2.62927509817327        0.99803531012620
C           44.69889977539076        3.26450671404872        1.18611404625677
C           43.74750113535563        2.36717142696522        0.82147632740134
C           44.43086103418836        1.18041599747894        0.39978025893935
N           45.77353468358513        1.36576791414599        0.51012931861646
H           42.70442839800706       -2.48814573223052       -0.94117734893297
H           44.59987913681507       -4.25252083757238       -1.63465097308363
H           46.26832823025106       -3.99635334343865       -3.70554931455350
H           46.27505482093411       -6.28266948723126       -4.63637093706158
H           48.27255060835754       -7.70405715117666       -1.11378327429083
H           48.25447105922603       -5.41704377696319       -0.18488777427066
H           49.91908070378700       -4.14185595139428       -1.83450671369540
H           51.79403288020647       -2.36835087911053       -1.10948374002558
H           51.76581383012149        2.45542386365090        1.05176630135435
H           49.87030513366665        4.20896436139696        1.77239934060692
H           46.21286640076192        4.03283681195229        3.62317300020626
H           46.19374107934085        6.32050294857431        4.55067005771873
H           48.19381511709040        7.75581771127075        1.03521748083200
H           48.20224563750681        5.46722633411712        0.10992830426614
H           44.55197011390092        4.27241304041859        1.53931794898796
H           42.67660001393850        2.49332405147910        0.82828061740613
