236
 energy: -400.952190421247 gnorm: 0.000724489538 xtb: 6.5.1 (b24c23e)
Co          46.19066222633086        0.44821537099961        0.11737249156530
C           43.12792901486888        0.25320031644189       -1.19936311107979
C           43.60647046738900       -0.84498953378181       -0.51100282471178
C           42.83265283450506       -2.01768293458733       -0.24014080316174
C           43.56998706475932       -2.78518480718339        0.59897346291568
C           44.82753055038923       -2.11944490406237        0.77527293229002
N           44.82014450699366       -0.91478860780643        0.12079571209878
C           45.93847680660562       -2.67515970179042        1.40140344131251
C           45.83226800606749       -3.98551586076361        2.08231791540120
C           45.46809326404378       -5.10538426167580        1.43907778117996
C           45.35038252884027       -6.43639167650531        2.13422266326165
N           46.02770429772428       -6.42071983228345        3.43275912920162
C           46.23546611311205       -5.24502405232373        4.10336247785464
C           46.18377690986188       -4.04735765210255        3.49323591165871
C           47.19255664510970       -2.08457578347631        1.30809596990518
C           48.41691387243520       -2.76193731393294        1.61269488446199
C           49.42514251784976       -1.95476584180600        1.19947401926964
N           47.45782128375188       -0.85235485700945        0.76186892841658
C           48.81781298176136       -0.75959380840039        0.70547443515694
C           49.53460642011100        0.39910546200768        0.38222906610975
C           48.88991921873453        1.64027905584114        0.27943478978086
C           49.56592483039650        2.89368587587818        0.39083407955723
C           48.60842397348703        3.85404066270676        0.40323775824459
C           47.35374526281001        3.18933122515620        0.21714684398936
N           47.54332563862748        1.82519004872854        0.19193673583317
C           46.15311602749669        3.82799016159191       -0.05729532308311
C           46.06805080811407        5.30509281846089       -0.00031652314023
C           45.20256715899416        5.90989276246704        0.82793322273057
C           45.07289648582890        7.40739116062742        0.91429792621146
N           46.20933407139965        8.07681503321955        0.27629160398972
C           46.93430535007897        7.44642938465162       -0.70045713804979
C           46.93123683320787        6.10974564585941       -0.85180353434941
C           45.04173885419949        3.11646152010334       -0.50307662615609
C           43.90787790108129        3.71843255365636       -1.14134418954897
C           43.11818505787802        2.70710120467233       -1.57751151518147
C           43.73922141329057        1.48941823271302       -1.15200295476103
N           44.92959082809105        1.75365354224270       -0.52316419255244
H           42.16467501298455        0.17337878753543       -1.68996454940765
H           41.83776488190070       -2.19572825575834       -0.61691786500230
H           43.29920246635629       -3.72619894027209        1.04955499142908
H           45.23155101217365       -5.10742458672263        0.38160867719244
H           45.80765741286329       -7.22521953258612        1.52128115727583
H           44.28531363859697       -6.70377728472034        2.26694246317613
H           45.85306344536066       -7.23826129386815        3.99850961222083
H           46.52254545239008       -5.36005593845663        5.14371526376339
H           46.40480504778067       -3.13362735508239        4.02632740921631
H           48.48411984425607       -3.74351296638306        2.05334863470422
H           50.48815737283336       -2.12486431350640        1.25669241230549
H           50.63279555275454        3.00852624903739        0.49534139240245
H           48.73583505432270        4.91946712069423        0.50527534663660
H           44.54052664723171        5.34265092297500        1.47180527633786
H           45.03802815397075        7.72471219960891        1.96547403477450
H           44.12718479386734        7.73553483731590        0.44365491771766
H           46.09211401958572        9.07436542166979        0.17332591934352
H           47.57187749749657        8.10011397199811       -1.28716442163205
H           47.54017072447326        5.62788720148285       -1.60335819627002
H           43.76441116366998        4.77993340705381       -1.26424989028965
H           42.18190768355020        2.76362319429955       -2.11002799348198
Co          77.54833342298734        0.04350034966004       -0.00138359700559
C           80.86458159919702       -0.11840222153423        0.42198880324523
C           80.32969220534005        1.02883434213041       -0.12571091816404
C           81.11250099211753        2.14151241670027       -0.57213020458401
C           80.28627893496719        2.92770100420304       -1.30379084961727
C           78.98730102261305        2.32256802648580       -1.25924679407976
N           79.02172987881760        1.17592718507760       -0.51570538157303
C           77.84491329438775        2.88063755721783       -1.82888029623223
C           78.00458540030610        4.03998035087949       -2.73530899272313
C           78.69741382131924        3.92698373394980       -3.87922964772297
C           78.89592970355000        5.08183703339246       -4.82467168275059
N           77.96478319251722        6.17439806194970       -4.53085577654148
C           77.44298526379843        6.32547315769004       -3.27237213944867
C           77.40355237818395        5.31772878480526       -2.38250486460211
C           76.57669504887170        2.43700101090174       -1.48505925054516
C           75.35805615490248        3.10248310102688       -1.83697353275233
C           74.37463757558508        2.53558973982821       -1.09523345581152
N           76.31381686587731        1.40312222558451       -0.61258810387324
C           74.97973561811310        1.47929190401550       -0.34845712839854
C           74.26959716207480        0.61089170249369        0.49237738481763
C           74.81322531657629       -0.61625702413443        0.89051478687094
C           74.03683130313402       -1.67599987358844        1.45383563655763
C           74.82055078622457       -2.78230527456329        1.43889332302327
C           76.09363430490600       -2.38164807370631        0.92076834650731
N           76.07578314990464       -1.04648172055606        0.59954634141987
C           77.20383289099618       -3.21503587279613        0.86000310547965
C           77.00770173967953       -4.65966276569858        1.11590252636536
C           77.57413160251063       -5.29287617754931        2.15461281535036
C           77.38241023904169       -6.76584409234031        2.40493220251010
N           76.23732558694435       -7.28746776478749        1.65538983207990
C           75.80917973553802       -6.66771101767951        0.51101626043937
C           76.12687340344100       -5.39389819144061        0.21919172850674
C           78.48301641333190       -2.70512073529026        0.66792664843811
C           79.69337838898052       -3.45782784868510        0.82519143199203
C           80.71331673341943       -2.56541558156487        0.82575289570194
C           80.13362299819403       -1.27879083033541        0.59011773165942
N           78.77289128891505       -1.37881087772148        0.47143537587231
H           81.93018773639136       -0.14766258466023        0.61816174728082
H           82.16449696335076        2.26996622831791       -0.37168829072459
H           80.51673572402514        3.85146722722444       -1.80968297624680
H           79.16214989635462        2.99300334944077       -4.17308108478143
H           78.72340717993951        4.75794075855505       -5.85998764159821
H           79.93867098444838        5.44653778066153       -4.76678847392991
H           78.16204454317747        7.02578677433942       -5.03680387579146
H           76.99085505240090        7.29338038798670       -3.08059980983515
H           76.95182959513537        5.44480168069277       -1.40903065539697
H           75.27687103032952        3.91323683744434       -2.54254986180128
H           73.32439358917375        2.77833021799721       -1.07411654104952
H           73.01205883577765       -1.58267358226652        1.77560580688339
H           74.57769150792625       -3.77853891719580        1.77168866847225
H           78.20844089587312       -4.77533865136808        2.86456038971438
H           77.20105296490536       -6.94800275569306        3.47285617223002
H           78.29892080166805       -7.32123031377293        2.13069967532779
H           76.15465136524087       -8.29334119514503        1.67955305451142
H           75.12992704456930       -7.25596351458504       -0.09765865198280
H           75.73512026649840       -4.90255658194368       -0.66006000671513
H           79.74614079110140       -4.52856095216338        0.93761021055536
H           81.77015231036279       -2.74971432455390        0.93798029897049
C           50.93079659323034        0.34338803934886        0.27738201411803
C           52.13814809129728        0.29408026583596        0.11624016445235
C           61.47827293446458        0.85453139060125        0.89133421508407
C           62.61583986074200        1.11425949438606        1.24892632001769
C           71.80952608367103        1.19270123388075        1.18133720306054
C           72.94748461344166        0.91738732245296        0.84105334324125
Co          56.89074180575732        0.22721527444512       -0.20195911819558
C           53.52736393968172        0.24671265237094       -0.05991901944555
C           54.19665082672212        1.38302701037304       -0.53127531212038
C           53.53001367016833        2.55729244891347       -0.99657071537059
C           54.45501251997689        3.29056653919579       -1.66589693023192
C           55.69348955178373        2.58189493989750       -1.56736628981891
N           55.52599317461758        1.42914527026083       -0.84377385615877
C           56.89964376365369        3.03035315634986       -2.09870112241169
C           56.87515075984857        4.19771343899537       -3.00758668732434
C           56.21089501194935        4.14620069337894       -4.17330333861939
C           56.19763140620978        5.28893630036742       -5.15251528728978
N           56.67224967770784        6.52767375195039       -4.53201818017163
C           57.44980749286747        6.50732762024319       -3.40710424118379
C           57.56369556322533        5.41963614352120       -2.62304295948109
C           58.11297425010925        2.47664099900693       -1.71632370050158
C           59.39702589275445        3.00940873953725       -2.05737219777942
C           60.29945436741964        2.40123530505052       -1.24652697484988
N           58.25211252418567        1.47001357067256       -0.78552395765042
C           59.57370056602555        1.45416372242994       -0.46282691701751
C           60.16278641461140        0.60508293965457        0.48864561328057
C           59.49887850578021       -0.54331943067562        0.94013066955248
C           60.13883074818163       -1.59347175365157        1.66596199269391
C           59.28842623365779       -2.65100352215276        1.65062560999202
C           58.11233323514791       -2.22588384608717        0.95562141982118
N           58.24566642059172       -0.92119299680361        0.55147421138963
C           56.98249187918819       -3.01493737534349        0.76420146192249
C           57.06642198428035       -4.45531912653826        1.09010422022413
C           57.93671588143063       -5.25528656228027        0.45353737859715
C           58.06041818877458       -6.72416302205547        0.75836234771013
N           56.91245523874176       -7.20531699653823        1.53113565060656
C           56.18180759151497       -6.34378456462851        2.30613802926352
C           56.19205191793302       -5.01289187657851        2.11100457390763
C           55.76785958628353       -2.46418486672064        0.37430002412293
C           54.52278752305735       -3.16997469668915        0.35357697065554
C           53.54666541072728       -2.23579347221544        0.22880867763686
C           54.19992695571077       -0.97265479681981        0.10817286220837
N           55.55354339992613       -1.12242491034455        0.15274093756194
H           52.48158642476608        2.76517979965938       -0.85700981138889
H           54.32442363675166        4.23687248634095       -2.16519918429763
H           55.70652595346305        3.24425115855658       -4.49997381142867
H           56.82026751670523        5.04518577605552       -6.03342572722435
H           55.17515070415671        5.45950376639357       -5.51790776845111
H           56.82814833386052        7.28475177654370       -5.18083164977227
H           57.90491231508980        7.45943915651151       -3.15339407507878
H           58.11779808396552        5.45312803669832       -1.69601301915367
H           59.57586175814288        3.76393660500051       -2.80612817225993
H           61.36627110207635        2.54926933817387       -1.19891817196958
H           61.12631206287587       -1.53101554493482        2.09409282847834
H           59.42683693351076       -3.62573127671968        2.08964175698302
H           58.60354771039423       -4.87548755696208       -0.31170117347346
H           58.99801376265428       -6.91982838612944        1.31158136905457
H           58.10854602089565       -7.30222073454464       -0.17444488782631
H           57.02302760296833       -8.14371251836657        1.88702756021221
H           55.53410729391134       -6.82319683673480        3.03318418534687
H           55.57784755736555       -4.35283089548785        2.70670055069894
H           54.41439994312810       -4.23837118602475        0.44537294453818
H           52.47917741790221       -2.38121715418760        0.19109572738582
Co          67.21204379418671        1.80553895198146        2.08064096623160
C           63.93495814293973        1.39675715548159        1.61439893793079
C           64.53280518688551        2.58327867628058        1.15349346929683
C           63.80018714013278        3.67533237909657        0.59732902093821
C           64.67389225475277        4.70646538297118        0.46789514601666
C           65.95721489187972        4.21211651297431        0.86371931520469
N           65.83925102406575        2.92115397926404        1.32652589443323
C           67.16479814932127        4.86756316708063        0.66139846478478
C           67.18568534435892        6.25886692629782        0.16037988699857
C           66.63186103741697        6.61325819891980       -1.00977995641681
C           66.70761535292321        8.01717866248636       -1.54769975829050
N           67.10722934790358        8.96680017295887       -0.50627359071423
C           67.81830813127438        8.54890251701190        0.58749520773298
C           67.86516040944824        7.26004696234720        0.96860204460968
C           68.38177402774494        4.20118632024072        0.78950690222932
C           69.61308908616921        4.66788034121489        0.23026431253147
C           70.50740236060928        3.65323958249679        0.34923830159068
N           68.54196390862023        2.93576284407543        1.29193234415187
C           69.83986970756941        2.59711421093756        1.04013503322279
C           70.48765561141487        1.46516576550027        1.55392785618695
C           69.88961705785168        0.68921414329760        2.56111178118420
C           70.62190883062846       -0.15098393554680        3.45284557933388
C           69.75048683423483       -0.55552569601207        4.41257360615852
C           68.46821579872058       -0.03230157856423        4.05335812683288
N           68.58397059598239        0.76719206165190        2.94026152625871
C           67.25976963649408       -0.40051879430613        4.63500417492194
C           67.23963886949009       -1.25291535985860        5.84357667286854
C           67.78991049118527       -2.47644795014234        5.87828954664642
C           67.77217167893990       -3.33501724030473        7.11556494248210
N           66.78151990013599       -2.85523300628699        8.08162398084618
C           66.37346609143449       -1.54845005784948        8.07852276528272
C           66.54386969348249       -0.74211878785452        7.01544086801407
C           66.04348276023511       -0.09212524811918        4.03244977741715
C           64.81058400085440       -0.75456988257889        4.33083672136252
C           63.91714786634254       -0.36511622568811        3.38597597654323
C           64.58560841070114        0.58675414204826        2.55728317335173
N           65.88234924694562        0.73599435836643        2.95047269052009
H           62.74285666497788        3.66282612253545        0.38672221228631
H           64.47410982964681        5.70630451306474        0.11867952172663
H           66.17197255596724        5.88607495942259       -1.66857824259076
H           67.41697323676058        8.06308867839475       -2.39527456249581
H           65.72583438291366        8.32672322775666       -1.93160740818026
H           67.32175744291843        9.89015715092643       -0.85397133885526
H           68.26944492258896        9.34731254469177        1.16791776622100
H           68.37368576390789        6.95708810688172        1.87274721930136
H           69.75568598636579        5.63344767158282       -0.22772855217493
H           71.53860177567934        3.62759035028888        0.03603431203117
H           71.67769887590075       -0.35616812261072        3.37785014482333
H           69.95369630696848       -1.16711237158365        5.27631807849372
H           68.27998949139294       -2.90942995796321        5.01439614395565
H           68.77565799898257       -3.35273320680001        7.58037283499463
H           67.51838904739728       -4.37126542189125        6.85388420618807
H           66.82792703278503       -3.31148215783822        8.98084778651242
H           65.83298048155356       -1.23868965924920        8.96721122930060
H           66.16630947667444        0.27040525475701        7.00944829349734
H           64.66726319356309       -1.45510478133147        5.13759681460945
H           62.88546025075662       -0.65830584853550        3.27633650207721
