242
 energy: -402.564739406708 gnorm: 0.000506336165 xtb: 6.5.1 (b24c23e)
Zn          41.70493151735911        0.54028501893303        0.35723350891309
C           38.29732447598590        0.44592575618936        0.25720248136331
C           38.95051393390798       -0.78098355236030        0.26487195771846
C           38.30022648127157       -2.06131971479602        0.26088480164862
C           39.27696371837347       -3.00283742401132        0.27659012950897
C           40.53767053679265       -2.30909195413426        0.28016871475706
N           40.30330669926249       -0.96438352139866        0.28141908776679
C           41.79961366827974       -2.91459232287324        0.30493822098433
C           41.84715691034742       -4.39814650398162        0.26896950834473
C           41.37734515851050       -5.09305431635706       -0.77747528802467
C           41.40426365824116       -6.59877898778714       -0.82781000184735
N           42.32267274850160       -7.14630161496221        0.17435934153897
C           42.61791915529267       -6.43633657370247        1.30993627976365
C           42.44049698792631       -5.10629199282847        1.39472965171095
C           43.02481773383833       -2.24030045997010        0.35892567541417
C           44.31690780876971       -2.86841425683520        0.34755814677316
C           45.24466204366980       -1.87837533494175        0.39047295449622
N           43.19257326545384       -0.88189416794642        0.39876787533225
C           44.53053307737470       -0.63571116008905        0.42013006978349
C           45.13632955121442        0.63540234881099        0.45310533741801
C           44.46015913762196        1.87097771848855        0.45143564594622
C           45.10174956001970        3.15116952971055        0.51884924102625
C           44.11973788157589        4.08835312750116        0.50880172948629
C           42.86700184636401        3.38979708310227        0.42655128947672
N           43.11152557824320        2.04274343675751        0.39826159159277
C           41.60528443908822        3.99504152310660        0.40998667788657
C           41.56670095913305        5.47879515042690        0.44715741399311
C           40.99676736862126        6.14281371664041        1.46352675978325
C           40.93085931757994        7.64732645059502        1.51243637775637
N           41.87307169187392        8.25019197516080        0.56562351823838
C           42.27547017124434        7.56094378563045       -0.54980806758311
C           42.18234006144748        6.22291169890356       -0.64282788363104
C           40.37944999344585        3.32049560336119        0.36226608060680
C           39.08432681865335        3.94354944029107        0.29025122095572
C           38.16185457569878        2.94952988572157        0.24963917596404
C           38.88094166515608        1.70708704370119        0.28621612298944
N           40.22017765880633        1.96495036300072        0.34929375570446
H           37.21244151587963        0.41587162716486        0.22500719708844
H           37.23144047467275       -2.20924432955411        0.25523467591011
H           39.15892793267427       -4.07451005428140        0.29587064369410
H           40.93778779377511       -4.60193043615753       -1.63788914146360
H           41.74086290366812       -6.93806704879044       -1.81686982179516
H           40.38696764856698       -7.00501526613497       -0.67252132716511
H           42.25991003617895       -8.14862199062185        0.27959152696922
H           43.08339992101484       -7.01660699762227        2.10034938412172
H           42.72641503672669       -4.55474829723023        2.27915482339499
H           44.48987145269616       -3.93176805337507        0.30432877842214
H           46.31901893615548       -1.97281308145644        0.39470521390896
H           46.16782021607683        3.30483948646880        0.57408770761739
H           44.23097036169022        5.15959349741727        0.55967132194404
H           40.53712765920495        5.62482116225328        2.29727358072342
H           41.18678131628202        8.00484719835415        2.51903283183128
H           39.90211795042853        7.99201391014590        1.29568431665880
H           41.75564919371767        9.24695028562398        0.45408695619344
H           42.75118339308215        8.16928602279222       -1.31253206457908
H           42.55144822102240        5.69108538489450       -1.50832917762818
H           38.90856608052712        5.00707116106059        0.26206913962943
H           37.08809799637670        3.03837569352700        0.19165758272078
Zn          82.15107577711966        0.48507485105336        0.39017431600453
C           85.55883008375544        0.49007183924172        0.26071443490936
C           84.94465420900713        1.72345424919403        0.44320911966844
C           85.63487282702580        2.97164811379519        0.60931759670278
C           84.68824702532548        3.93188772481170        0.75904039882047
C           83.40625949955559        3.28366796323894        0.67393491797487
N           83.59832620709156        1.94440771365480        0.49343156236652
C           82.16354639614727        3.91994540610210        0.77773137553127
C           82.16400856788255        5.39514798848464        0.94466847910733
C           82.67070815415038        6.21146247378269        0.00889907626880
C           82.70120310606636        7.70928703874860        0.16988123625650
N           81.79942147357187        8.14748057637661        1.23886308093690
C           81.46293358731717        7.29569311372597        2.25974805862474
C           81.58436215400195        5.96084922880237        2.15499221040196
C           80.91788355649047        3.28299578396857        0.73908065298862
C           79.64589241492918        3.94816601264786        0.80040247903746
C           78.68777527233546        2.98992515374578        0.71971781622522
N           80.70810778773303        1.93602423911086        0.61140234757930
C           79.36290478908198        1.73060967503779        0.60243155562126
C           78.71909382436988        0.48133863970408        0.51024977498113
C           79.35777094745013       -0.76673255267486        0.37726022703511
C           78.67861433352415       -2.02752459766764        0.31131137907382
C           79.63071139411586       -2.98433062846184        0.16662989907200
C           80.90252922333217       -2.31666153855419        0.13520233256914
N           80.69945710834679       -0.96974893062803        0.27481585004541
C           82.14382068196798       -2.95036001219824        0.00518449999750
C           82.13768123894509       -4.42561201283150       -0.15987905207993
C           82.72479144069186       -5.23822074812800        0.73121788939766
C           82.75271778986959       -6.73571779742320        0.56681282854526
N           81.76229225965253       -7.18026841658032       -0.41771467789528
C           81.33872153911312       -6.33208380835549       -1.40920228944874
C           81.46315915073357       -4.99661843191970       -1.31753859821138
C           83.38903091575200       -2.31008171009711        0.01382372737257
C           84.66273783008661       -2.95415667976191       -0.17045211930315
C           85.61513160823203       -1.99102916871960       -0.09377048843321
C           84.93598184577587       -0.74509761873849        0.12579036925108
N           83.59043443500634       -0.97027813819282        0.17941228203861
H           86.64378969538254        0.49162287785692        0.21885385164681
H           86.70775015026670        3.08594409132702        0.61747124960137
H           84.84049529438174        4.98659598807134        0.92373923450620
H           83.10265267700544        5.82921841435273       -0.90873622005924
H           82.38391749606315        8.19657503700475       -0.76213615598721
H           83.73261264898562        8.04951332968887        0.38067952263635
H           81.90723919588558        9.11997858391120        1.48864032845390
H           81.01362866147794        7.77676471332321        3.12278289145696
H           81.26612875736205        5.30202253536758        2.95052064678860
H           79.50644370016390        5.01382477358379        0.88694281223350
H           77.61688509561554        3.11704662460787        0.73370869351978
H           77.60957480961973       -2.15613489683166        0.37335147611414
H           79.48751789196403       -4.05053004343349        0.09394350691813
H           83.22831321438760       -4.85281571360349        1.61022423080106
H           82.52391485352881       -7.22602615570953        1.52271394568373
H           83.76390539300510       -7.06740465130544        0.26409334765158
H           81.85395947399624       -8.15254620777269       -0.67497269844074
H           80.82066977467612       -6.81685281730983       -2.23063024520803
H           81.07763267329449       -4.34097768698115       -2.08547330516705
H           84.80537503728533       -4.00813511860567       -0.34781442490743
H           86.68449409212064       -2.10198702044304       -0.18511896681593
C           47.76438276410648        0.71211159055130        0.52165969250026
C           46.54372207030470        0.67465716397359        0.49142565902027
C           49.11511757230477        0.74655061274798        0.55620342683212
C           50.33622870451534        0.77550959556875        0.58158654713456
C           61.25145486667549        0.85306716171981        0.70451577064393
C           60.02870474613506        0.86633689506646        0.70337096507834
C           62.60057935300917        0.83384449496137        0.70221207408132
C           63.82324590791152        0.81282719678354        0.70136829190024
C           74.73758276578523        0.51720270565911        0.61168800396068
C           73.51655258239219        0.54803993329144        0.63157703454358
C           76.08940353300291        0.49594986021576        0.58288311378939
C           77.31043599457830        0.48281849309062        0.55199279183318
Zn          55.18255865740405        0.85710515165431        0.67100099176515
C           51.74339757762596        0.80512188263991        0.61233349850144
C           52.39010286853404        1.62192850749025       -0.33623849951295
C           51.71703799597610        2.44429547306557       -1.29749945646686
C           52.67696338389651        3.06020511986657       -2.03447294680647
C           53.94669830952643        2.61064045748359       -1.53649072115172
N           53.73525003803251        1.74533269451023       -0.49631775898561
C           55.19496798850798        3.00413966534942       -2.03023457636835
C           55.20692725204216        3.92599872511042       -3.19436204073144
C           54.70211315077750        3.56506977873746       -4.38339505966781
C           54.75206946564689        4.46647320050073       -5.58914853350014
N           55.01379003090840        5.85473021546371       -5.20044895120747
C           55.67772784828818        6.13903083524008       -4.03479040985671
C           55.77864791653543        5.25440924161496       -3.02725345252415
C           56.43796494891315        2.60363305160673       -1.52840772411549
C           57.71116439855050        2.97302203403168       -2.07950003267291
C           58.66508200044562        2.37412006013502       -1.32046514590211
N           56.64097952059442        1.77944338877571       -0.45352805499094
C           57.98407471414914        1.62973716802226       -0.30308358740648
C           58.62376007162345        0.87220141768720        0.69953314479980
C           57.97385348346666        0.11940899056306        1.69957100270911
C           58.64502970422025       -0.60154110277164        2.73965144422408
C           57.68465820288477       -1.19413029319930        3.49540590467261
C           56.41679656280289       -0.85120716427946        2.91501377842510
N           56.62989016505635       -0.04052260531667        1.83131544419480
C           55.16868645686389       -1.27036299864847        3.38866441724723
C           55.15464585332404       -2.17855152182722        4.56318250237271
C           55.70995754520984       -3.39856125660153        4.52122132042736
C           55.72099401578284       -4.32456949640360        5.70979639823255
N           54.75004966372559       -3.90053152325784        6.72237515047779
C           54.36045934760560       -2.58830766220145        6.80693000018132
C           54.50028286888980       -1.72756244085552        5.78365966059038
C           53.92676654608601       -0.90871281420898        2.85411858839144
C           52.65496535061647       -1.38976167247892        3.31596773862621
C           51.70252225797216       -0.81677783854156        2.53616562356861
C           52.38251560616528        0.01578380621851        1.58833764849776
N           53.72470769370693       -0.06269693277121        1.79683487138391
H           50.64640254861835        2.53884678895713       -1.38672001342557
H           52.54001390685791        3.76415012261212       -2.83947897780550
H           54.29571913441672        2.57481759938852       -4.55349304074637
H           55.52770451312895        4.11685546437844       -6.29662832186430
H           53.79190248570188        4.43862999799826       -6.12192150001803
H           55.20008208686625        6.46841098415811       -5.98046442083978
H           56.03902032850278        7.15950054810882       -3.95600188000324
H           56.23805678787767        5.52267991936540       -2.08646027328992
H           57.85494966589246        3.60227847442929       -2.94336344141764
H           59.73620969688936        2.42401462665409       -1.43623844135191
H           59.71442279677110       -0.63801815099903        2.87473727014797
H           57.82179841697195       -1.80126673446997        4.37565411797643
H           56.19696678532926       -3.77395377136228        3.62873380134300
H           56.73471002099653       -4.36741417087379        6.15077855082473
H           55.46053464006153       -5.34483092084959        5.39704726778517
H           54.83212502975653       -4.39735386498021        7.59768952309073
H           53.85527836964422       -2.32301547158356        7.73025469603199
H           54.14031722669237       -0.71058069420451        5.84947848928233
H           52.51134004230772       -2.08360391086629        4.12864771072039
H           50.63290181113378       -0.94385424180198        2.59009022537009
Zn          68.66833496353645        0.69228681129222        0.67790549491011
C           65.22796120188328        0.78225419599877        0.69714029542116
C           65.88605648492945        1.52011804952735       -0.30859067784135
C           65.22412494161927        2.31912384049745       -1.29659516530163
C           66.19110096568681        2.86727458725116       -2.07693572277055
C           67.45358813410857        2.39980451425972       -1.57757041445883
N           67.23098370539368        1.58876262348495       -0.49607931384051
C           68.70570874856764        2.73721323176724       -2.10122134823858
C           68.73089658238845        3.60789218210938       -3.30387637420404
C           68.20500704300215        3.20885431661939       -4.47136071762695
C           68.27156609961811        4.04895832425386       -5.71970932811083
N           68.61482754830706        5.43906415462596       -5.40796586703584
C           69.28676758281401        5.75529268493765       -4.25600455545407
C           69.34899499954321        4.92190826282988       -3.20259008574783
C           69.94393591573031        2.32354673688428       -1.59723747018129
C           71.21997289456532        2.64141236489937       -2.17413496147500
C           72.16685513172867        2.04354470242289       -1.40616197592498
N           70.13769631503401        1.53028927292341       -0.49851191948241
C           71.47876318045802        1.34816889332459       -0.35888099869028
C           72.10858913940331        0.58868190070525        0.64641215463977
C           71.45263067854999       -0.13168011041869        1.66359427038988
C           72.11724848185867       -0.86750662410088        2.69782803758630
C           71.15103258059997       -1.40712167102182        3.48471239074901
C           69.88513006840766       -1.01481514131287        2.93124542728522
N           70.10578229124209       -0.23259979049445        1.82920048199339
C           68.63237230008612       -1.35914068881959        3.45145661270947
C           68.61059070527563       -2.24097614765117        4.64601985773303
C           69.09419364860906       -3.49121361230054        4.61009891134101
C           69.09853260925669       -4.39322016418877        5.81696164837265
N           68.19673823187138       -3.89237743674911        6.85815881428894
C           67.88450037051534       -2.55871786330159        6.92718015756850
C           68.03047242101934       -1.72873304559767        5.87966900697460
C           67.39432751743368       -0.94475230092760        2.94820758030369
C           66.11534438486541       -1.34128231625031        3.46659340972028
C           65.16862357096383       -0.74599417738541        2.69631588946726
C           65.85909778359819        0.01423639677595        1.69703962197572
N           67.20107666594814       -0.12427064412995        1.86859783023301
H           64.15584504781469        2.44611292647282       -1.37306653941356
H           66.06369488988962        3.53768026896220       -2.91160988395155
H           67.76721797053801        2.22470298810778       -4.59218270375539
H           69.01046367827107        3.62522093504177       -6.42571931893832
H           67.29845073058226        4.04535203336302       -6.22996639254369
H           68.83181199081645        5.99873043474079       -6.21987280422277
H           69.69242732008654        6.76173487721216       -4.23027017194391
H           69.81732632710217        5.22074543951510       -2.27552010410660
H           71.37012400342805        3.23741674450565       -3.06015892204025
H           73.23738273637858        2.06116153273295       -1.53569248797709
H           73.18711298775327       -0.94878156616417        2.80723770825201
H           71.28310146977647       -2.00842250533815        4.36973110618275
H           69.52556336151147       -3.91074927224491        3.70867514607191
H           70.12503671755600       -4.48856545350917        6.21822243747070
H           68.76548533499950       -5.40180960303606        5.53676205099166
H           68.28868030533259       -4.37353586836802        7.74122366437225
H           67.43264201617035       -2.24608893426228        7.86323453337578
H           67.73049660549192       -0.69191998091031        5.93589373584572
H           65.96281543167274       -1.99791139486095        4.30807068349586
H           64.09621563222008       -0.81507407765959        2.78772785251197
