195
 energy: -340.898220701221 gnorm: 0.000494495564 xtb: 6.5.1 (b24c23e)
Cu          26.51910832705227        0.02096886662328        0.02318575019649
C           23.11450520339481        0.08620584834500        0.06972636482304
C           23.75288949507187        1.19941687332534       -0.45615063544474
C           23.08149965710815        2.33164860257936       -1.02584582326523
C           24.04329782626362        3.19867762325132       -1.42982516571264
C           25.31145016690393        2.60974279256689       -1.09665516893442
N           25.10414477698832        1.39289624660214       -0.51339413493706
C           26.55787901255149        3.19036089140067       -1.34947591582143
C           26.57559447896272        4.54840668246180       -1.94355384057234
C           27.18766047319166        4.77704089573687       -3.17850682902181
C           27.20367094273738        6.04154751361525       -3.73962207279218
C           26.61754960428058        7.11553689443264       -3.06482471654171
N           26.59773701523268        8.37418158340862       -3.64040477400426
C           25.99974708672729        6.89476656598397       -1.83116481790926
C           25.97960462790732        5.62494404126222       -1.28199533567358
C           27.78804833333227        2.58414507499867       -1.08406502427050
C           29.06671295151026        3.20916812379686       -1.26868122463180
C           30.00982778734762        2.30712683514714       -0.89488835916370
N           27.97263375728026        1.31923829457987       -0.58996865773794
C           29.31499470032059        1.12942202246204       -0.47160094343468
C           29.94736848522680       -0.04038990212435       -0.01309360300907
C           29.28345279520805       -1.18925844740263        0.45371206015099
C           29.94446910097322       -2.39321970250058        0.85688476640767
C           28.97773773642770       -3.26291825756507        1.24677214974868
C           27.71883109961122       -2.59111083034141        1.09349247431631
N           27.93804779526793       -1.33154357956415        0.59982036190636
C           26.47382682933180       -3.15172377862990        1.38771660931559
C           26.45407136468605       -4.51318562554968        1.97410591183266
C           27.08366629411292       -4.77322592845669        3.19384216500081
C           27.06320570048698       -6.04124981476815        3.74695215439890
C           26.42201146491429       -7.08749572427170        3.07869428750648
N           26.36606440836488       -8.34833406467446        3.64709154633655
C           25.78676375128823       -6.83506467190614        1.86005355989411
C           25.80310141981682       -5.56162030600894        1.31928670305434
C           25.24432781197477       -2.52250067832807        1.17102197740499
C           23.96432031633741       -3.06324522224864        1.53868281593307
C           23.02572218691208       -2.15838899768300        1.16415755173902
C           23.72397404286654       -1.05137405597446        0.57741421757568
N           25.06785388083566       -1.29680844929098        0.59629509676628
H           22.02955140431852        0.10707945912716        0.08482794642538
H           22.01086236350551        2.43167190971851       -1.11218026022353
H           23.91188500552833        4.14806399505123       -1.92357353515861
H           27.63707835673224        3.94694601977046       -3.71261543517331
H           27.67206210905247        6.20387066710281       -4.70425579388847
H           27.31539920348065        8.53899489442635       -4.32808893066216
H           26.47148093253531        9.13628448433681       -2.99362072614261
H           25.54001933395952        7.72378018814783       -1.30419213700212
H           25.51443308467995        5.46569914343388       -0.31523887534973
H           29.21995224859472        4.21625421710423       -1.62139122936807
H           31.08184601564183        2.42357736322211       -0.89409998893930
H           31.01132954281579       -2.54807797831046        0.83158902028277
H           29.10195100836572       -4.27669106675889        1.59168446610319
H           27.57600892832900       -3.96453170484557        3.72291092208270
H           27.54548922898424       -6.22787026261832        4.70027890758352
H           27.09175547604874       -8.54558625350662        4.31758925036939
H           26.19606150081475       -9.10046922482375        2.99864942741269
H           25.28452127089475       -7.64238107355713        1.33822417582781
H           25.32308649791490       -5.37776511780510        0.36422116754227
H           23.81066057022106       -4.00839761453976        2.03414424793068
H           21.95490406534858       -2.21721506103146        1.28079631701176
Cu          63.73319671102562       -0.01438683688868        0.04161872344220
C           67.13740376400771       -0.00973755720001        0.12382631679982
C           66.49964846778789       -1.06502030644709        0.75873095656681
C           67.17159380792963       -2.16639544046810        1.38552921095615
C           66.21011978639915       -2.98539783866690        1.88031409087959
C           64.94161645836202       -2.38304834286793        1.57338920888343
N           65.14849245667006       -1.22204469262810        0.88561727609608
C           63.69532514345471       -2.91688877485228        1.91465416935367
C           63.67807925341873       -4.16450057778505        2.71526896813572
C           63.06928408470085       -5.32048629788257        2.22035276624554
C           63.05408948363439       -6.48810763707583        2.96244782142139
C           63.63750854791969       -6.51993587239339        4.23166620285609
N           63.65836786866348       -7.69620280206790        4.96099871704818
C           64.25173477271436       -5.36921012252052        4.73253804070413
C           64.27125585282676       -4.20871721201199        3.97937944313174
C           62.46503626785594       -2.35982117115311        1.55802544993664
C           61.18647318077038       -2.86072798974739        1.97535822297227
C           60.24331325157475       -2.04757682315293        1.43493514743749
N           62.28026442490775       -1.24539889057973        0.78210505650147
C           60.93805933241262       -1.04071606827521        0.69143637072561
C           60.30550189035763       -0.00744781465331       -0.02333242289627
C           60.96837152935738        1.02004289116938       -0.71851746290128
C           60.30618821491944        2.02549736441054       -1.49294303256162
C           61.27261278551235        2.82960727087410       -2.00517081847719
C           62.53254525634576        2.32613509174138       -1.53721466570813
N           62.31396127677609        1.21764058808329       -0.76153710989011
C           63.77780823090392        2.87781650192268       -1.84703801716207
C           63.79804108492718        4.11832286900504       -2.65863969891050
C           63.17282147904766        5.28051485644427       -2.20017862624738
C           63.19469664465464        6.44201179502315       -2.95165163130774
C           63.83324815683980        6.46132230488631       -4.19431104200106
N           63.89151301892699        7.63175508216902       -4.93088623996197
C           64.46375624684688        5.30413775342977       -4.65877487328184
C           64.44584688153196        4.14986359051204       -3.89604837197888
C           65.00755179156060        2.34761351270824       -1.44524165992626
C           66.28776961245114        2.95169107375752       -1.69480421389801
C           67.22622589562866        2.14074244820321       -1.14559691984580
C           66.52784657757591        1.04120405054662       -0.54500773196435
N           65.18402126428352        1.19246498305078       -0.73945204375589
H           68.22232100242135       -0.00723924977701        0.15124793693760
H           68.24235263765912       -2.29212323100642        1.42278674697917
H           66.34187042332589       -3.92320232333547        2.39564938640479
H           62.62174707353275       -5.30640608406654        1.23251255053922
H           62.58839585161935       -7.38216191312735        2.56235012976629
H           62.94229376995211       -8.36147274056528        4.71657065197906
H           63.78318390182315       -7.57935658525446        5.95389098596857
H           64.70916085670035       -5.38856726875370        5.71574410034349
H           64.73374413225123       -3.31459757246500        4.38311899104719
H           61.03345507394671       -3.71438121036775        2.61566136678730
H           59.17136890725116       -2.11093724870483        1.53347300605605
H           59.23879229613677        2.09338586427023       -1.63040193096079
H           61.14730369205556        3.67918768691426       -2.65682287444961
H           62.68295781997242        5.27630307048919       -1.23254633275729
H           62.71581031825121        7.34109038089450       -2.57936615635737
H           63.16913033811282        8.30246471262893       -4.72263202498560
H           64.05923727250469        7.50705401569800       -5.91646037718501
H           64.96376868512401        5.31375908163172       -5.62117929214599
H           64.92238262729347        3.25089627977739       -4.27174399396068
H           66.44168006986145        3.88550132884434       -2.21125703557521
H           68.29706135133725        2.27033916136829       -1.13049784132503
C           31.35223863411331       -0.06162177489414       -0.02007785583822
C           32.57697112317001       -0.07500192681119       -0.01854287842621
C           33.91957388979061       -0.08477758183761       -0.02011354244859
C           35.15054635014086       -0.09197442137203       -0.01826843013885
C           36.48836977369758       -0.09256950109276       -0.01332273248380
C           37.71933402226730       -0.08557908862638       -0.00690060787139
C           39.06175951242082       -0.07920990131997       -0.00372447270385
C           40.28670839127021       -0.06841748297501        0.00133773971573
C           49.96643167293070       -0.01065374487380       -0.02041353580794
C           51.19129400522920       -0.00695004136730       -0.03324367716379
C           52.53365963697258       -0.00482029277873       -0.04699191242772
C           53.76458447727396       -0.00074801653466       -0.05516998051823
C           55.10239224349466        0.00034421452863       -0.06058721571235
C           56.33327512411738        0.00302273705181       -0.06128615315816
C           57.67588140300332        0.00030792419188       -0.05459960004162
C           58.90060115610853       -0.00237772858065       -0.04353662050152
Cu          45.12643871123757       -0.03267452619350        0.01355843933168
C           41.69119672259706       -0.05975304560294       -0.00163711206437
C           42.33139991662954        1.14334474638340       -0.35193464585844
C           41.64406060320896        2.35918705980365       -0.66590147346334
C           42.59395923101776        3.29441858905242       -0.92350350071784
C           43.86857498815831        2.65113168235197       -0.77991145067729
N           43.67504522454244        1.34293417668195       -0.42215285234420
C           45.10471418780821        3.27805107814880       -0.95435471859451
C           45.09692081053070        4.70384821276566       -1.36425824101856
C           44.52631901029635        5.09385831758882       -2.57797043380344
C           44.52328462262840        6.42202229361682       -2.96609300815617
C           45.09114566806576        7.39519479250270       -2.13992901696524
N           45.04618418200810        8.73065855966722       -2.50149442136974
C           45.65197637029207        7.01474462760994       -0.91811775189271
C           45.66008330129297        5.68302514406120       -0.54261490508242
C           46.34896871731644        2.66843043612608       -0.77514260403402
C           47.61458616984658        3.30080765075364       -1.01446744691252
C           48.57692319930214        2.38155960260779       -0.74535743595313
N           46.55995547275498        1.37450367445047       -0.37830235458462
C           47.90601688757864        1.18101248768956       -0.34833464070291
C           48.56209974798782       -0.01347898138257        0.00163614905225
C           47.92189275593253       -1.21321510773076        0.36308032491643
C           48.60872313521327       -2.42839640909963        0.68028824986642
C           47.65860525846482       -3.35757882331982        0.95864821742972
C           46.38457872564783       -2.71190838885477        0.82119197499566
N           46.57841368304199       -1.40795193071550        0.44913436784507
C           45.14838172539604       -3.33517411902439        1.00941782490545
C           45.15847315341622       -4.75370181274084        1.44330110979487
C           44.58925951201865       -5.74795532984356        0.64425095771274
C           44.60122132677784       -7.07262467709333        1.04385596103129
C           45.18341187849898       -7.43227404003478        2.26199791631703
N           45.15337461094168       -8.74895446152957        2.68830445242580
C           45.74335053922677       -6.44185358190685        3.07295287664167
C           45.73608664600537       -5.12098059684910        2.66093039409828
C           43.90414186410847       -2.72869799952231        0.82037163771129
C           42.63795753262981       -3.35997779236637        1.05990772935181
C           41.67593637814750       -2.44715527339528        0.76910051877050
C           42.34738163201727       -1.25016439717215        0.36220098808078
N           43.69354338035109       -1.44027602690229        0.40511472540221
H           40.57214045524109        2.47603350672373       -0.67580152915414
H           42.44699831513864        4.33243312095859       -1.17429184668247
H           44.09900607609362        4.34205377144271       -3.23251423091749
H           44.08364473147486        6.71162723355332       -3.91430018601531
H           44.94109751095360        8.90098279465261       -3.48891446466444
H           45.73727946120836        9.31515528020861       -2.05902931498898
H           46.08189156265247        7.76742385604621       -0.26628337189868
H           46.09037120725220        5.39641759459288        0.41078244062087
H           47.74733659333984        4.31334149730579       -1.35978010036750
H           49.64701168885147        2.49549629300161       -0.81426449847504
H           49.68031122371902       -2.54880884229060        0.67951661947942
H           47.80497384130955       -4.39349657340437        1.21854671348669
H           44.15087123994341       -5.47901666455474       -0.31061389256537
H           44.16213444458879       -7.83656228901233        0.41149996706818
H           45.85217967813090       -8.99083701687058        3.37259536602000
H           45.04909227759892       -9.43148951912424        1.95461109209048
H           46.18437894940622       -6.71303147141599        4.02596115119715
H           46.16533827376929       -4.35676961954616        3.29968414313551
H           42.50432571298844       -4.36734264056163        1.41950555142986
H           40.60560414506443       -2.56249082681986        0.83117207853751
