236
 energy: -423.754070578755 gnorm: 0.000806154843 xtb: 6.5.1 (b24c23e)
Fe          50.62454133554179       -0.03054920949871       -0.14268413665004
C           47.26052568574926       -0.00588627008637       -0.50308975523638
C           47.88666534223412       -1.23027394124133       -0.38354394929240
C           47.19037793640559       -2.48020498579514       -0.33678145137718
C           48.13474081676362       -3.44783368678355       -0.25920928195713
C           49.40841887416134       -2.78835708697710       -0.29378151954120
N           49.24013903486454       -1.42988895291965       -0.31855171253371
C           50.62981754840517       -3.44873385763195       -0.38692041072918
C           50.64342735143894       -4.92787283178870       -0.45590121222749
C           49.97598697076930       -5.60385126791065       -1.47807585669194
C           49.99632497171554       -6.98838274034831       -1.54275781057774
C           50.68450242790647       -7.71592069748903       -0.57447765903236
O           50.72751142612113       -9.07292605074670       -0.59846377756745
C           51.35494679694063       -7.05340862921435        0.45236486816089
C           51.33550958861306       -5.67127139417199        0.50414887603679
C           51.84235682695366       -2.77365877330612       -0.44926639588903
C           53.10284551987782       -3.41033761931391       -0.69081702860164
C           54.04843355849447       -2.44165907342642       -0.62992728373645
N           52.01865530850104       -1.42244731754534       -0.27685368588152
C           53.36544399945063       -1.21848746973789       -0.34597914853990
C           54.02413526455312       -0.02097913632666       -0.04164820684343
C           53.34404538053207        1.15489375565435        0.29980862203406
C           54.00489672867222        2.36263683154157        0.68391810106276
C           53.04167666285219        3.30330231503132        0.83350024600798
C           51.79318194081542        2.66904143815558        0.52879357865672
N           51.99570266192250        1.34173419809015        0.23226668593790
C           50.59180708170672        3.35170274418461        0.40129674611459
C           50.57785654958808        4.81228715512109        0.65997047635118
C           50.83202338556497        5.30646713353098        1.94113446994753
C           50.81912253601893        6.66761558543705        2.18991735943229
C           50.55835799705827        7.55777646611303        1.14979194003278
O           50.55761103765163        8.88738307943364        1.42756210435127
C           50.30949283886403        7.07891525599172       -0.13424397492807
C           50.31686264828901        5.71307047460572       -0.37234648348574
C           49.40866714561196        2.73038265590001        0.01284952763370
C           48.16174318571912        3.41532928324503       -0.17186394651039
C           47.23402904753372        2.47158512231330       -0.45799867935249
C           47.90931370957673        1.20925623168171       -0.42335031343413
N           49.24348051288099        1.38367940606428       -0.16309538373288
H           46.18353475396381        0.00220617921657       -0.62850769315540
H           46.11688766838906       -2.58346611407566       -0.34972440452358
H           47.99253371808575       -4.51378495610937       -0.18509898708240
H           49.45402484268912       -5.03919649394568       -2.24256488933982
H           49.48178987953554       -7.50802115057274       -2.34400120731961
H           50.22529453008431       -9.42824664147482       -1.34407597959959
H           51.88408922308496       -7.63180552846200        1.19961451193246
H           51.84782185881407       -5.15608894230729        1.30900538419449
H           53.23642345608916       -4.46061051016718       -0.89299290674281
H           55.11533891763283       -2.53682473038420       -0.75073068625874
H           55.07029951070927        2.46746098563651        0.80951927330573
H           53.15913359422034        4.34092570055135        1.10028225012185
H           51.02561692734002        4.61277142653487        2.75159760478898
H           51.00857212388920        7.05439307520675        3.18359278024634
H           50.36187961125177        9.41139383042282        0.63925075508136
H           50.11307327002591        7.77588933793669       -0.94192397749974
H           50.13609228325115        5.34169344626919       -1.37487750559838
H           48.02288912278881        4.48035449310188       -0.08013283291713
H           46.18087898687492        2.59703879429153       -0.65378438774745
Fe          83.09099427760951       -0.01463510975906       -0.35980666820822
C           86.29311074605810       -0.17387627862566       -1.39220269847651
C           85.74327134493805        1.07865536007848       -1.20253656890130
C           86.48072020333551        2.29803731599038       -1.34177338978669
C           85.65977272497595        3.29634681459474       -0.93700108638771
C           84.40111870636895        2.69142569237773       -0.60804114519322
N           84.47704516947566        1.33260273771025       -0.74719877156655
C           83.24986325530237        3.40059316522985       -0.27551917254318
C           83.31486853735093        4.87663986418513       -0.16624990229938
C           83.68579239719885        5.66407486386064       -1.25647447643603
C           83.73640589899047        7.04515512980148       -1.14716955843668
C           83.41908726178409        7.65516173945043        0.06417971138561
O           83.46038473324988        9.00355214867170        0.21613311908076
C           83.04251694039782        6.87992909951066        1.15973421602363
C           82.98642793536791        5.50312782586781        1.03874385845825
C           82.01261028612373        2.78666701354948       -0.12513823926586
C           80.77392978845461        3.50217692811148       -0.04763066751324
C           79.78561563451723        2.57527385556035       -0.06931817552496
N           81.77560935070335        1.43439007319711       -0.16177761045313
C           80.42059398913435        1.29618440884450       -0.11571054325301
C           79.72369436198386        0.08228208099088       -0.02924466898823
C           80.37693702187681       -1.14664224280159        0.15131604408991
C           79.69987148598260       -2.35231410355419        0.51212893176751
C           80.65522827236748       -3.29273433038146        0.71094663979058
C           81.91421848267686       -2.66730135957690        0.43481417061375
N           81.72378348756868       -1.34553035696899        0.11140609740481
C           83.11703398846389       -3.35732434154049        0.35642212461407
C           83.12970551241538       -4.78733681814561        0.74475259861740
C           82.85313636493827       -5.15564423361373        2.06381666335160
C           82.86255647857173       -6.48546575883135        2.44461141817665
C           83.13942520590192       -7.47274005285857        1.50035111791412
O           83.13758818200054       -8.76798559926178        1.90712119568626
C           83.40437012625195       -7.12098005121236        0.17888068489963
C           83.40097800550984       -5.78505529005514       -0.19167643999868
C           84.27948547076993       -2.78005622580589       -0.14871486169758
C           85.49526316684891       -3.49538522101136       -0.40899313734785
C           86.35081668771660       -2.61831516368555       -0.98644373887029
C           85.67869836887184       -1.35452967972690       -1.02407444133413
N           84.41350698578428       -1.46828920528842       -0.51257809300268
H           87.30996481652478       -0.22854982265576       -1.76484586184752
H           87.50426106802804        2.35967631890993       -1.67587718360346
H           85.87692235054820        4.34988463530330       -0.86853403651908
H           83.91439925169455        5.19311188332120       -2.20589580992304
H           84.01853400052362        7.65300661417248       -2.00012190903360
H           83.73300360213516        9.44264889471550       -0.60071774377962
H           82.79702264838780        7.36796326929002        2.09477971414456
H           82.70040466341777        4.89842636248896        1.89201042183862
H           80.68132323793571        4.57550990598005       -0.01529660371886
H           78.71998501131314        2.73152256075268       -0.04010860479889
H           78.63241178582139       -2.44935891407671        0.62317007877628
H           80.52596118153021       -4.32575827229480        0.98984541589758
H           82.64496444503473       -4.38610448785689        2.79867773737127
H           82.65705912802085       -6.77393781421565        3.46802400076846
H           83.34065315956217       -9.36761701611952        1.17664515594977
H           83.60907427504200       -7.89324000569816       -0.55485516237198
H           83.58838695832362       -5.51506486412898       -1.22491972983201
H           85.66332246903772       -4.53500301220671       -0.17932057730001
H           87.35939841378779       -2.78605365950781       -1.32958395896859
C           55.42766926043453       -0.00730898415276       -0.04996955517362
C           56.64637032967981       -0.00356424295128       -0.06600076406526
C           66.25906667221719       -0.03448800042785       -0.10231749282414
C           67.47901095355803       -0.03712633357214       -0.08429727535020
C           77.10153918005039        0.09239805001767       -0.05487623602907
C           78.32138465213323        0.09965526788444       -0.03150429426453
Fe          61.45434018113368        0.00010623429525       -0.12546749073807
C           58.04879678186326        0.00146405722538       -0.08551611015735
C           58.73189922871005        0.95052220436187        0.68653328823062
C           58.08698002308846        1.88554556103380        1.55186980928639
C           59.04822289806439        2.73643503047658        1.99057571045761
C           60.27551450175441        2.31896803248627        1.38344633164964
N           60.07397168504651        1.18663243474874        0.63511281810589
C           61.47300392164700        3.02491657230871        1.46299425099544
C           61.47560912921511        4.33832195917471        2.14284965040925
C           62.32648877358551        4.58002268665537        3.22514093172895
C           62.32681021959966        5.80539813632749        3.86658878780677
C           61.47612349565471        6.81762884237565        3.42506747815876
O           61.50602630197576        8.00921242018034        4.07349795978542
C           60.62541626685835        6.59316814242006        2.34458881640205
C           60.62483723503026        5.35914050568759        1.71451055132687
C           62.66452156532828        2.54279946674585        0.93368452013724
C           63.90550001219140        3.25698270097232        0.94599264193925
C           64.85789801099139        2.39153132793158        0.51710020503734
N           62.85146016183536        1.27695159828815        0.43245725358675
C           64.19293074807941        1.16017135960755        0.23125248946100
C           64.85964723348746       -0.02400989587720       -0.11834191084931
C           64.17771677334034       -1.19237565146698       -0.48819045998214
C           64.82728231310691       -2.42574280577182       -0.79989461835879
C           63.86658224639362       -3.26550904020969       -1.25991092085999
C           62.63461953283657       -2.53617670731829       -1.23324949237595
N           62.83567141848475       -1.28515897853534       -0.70271799903688
C           61.43408199138551       -2.99949693921449       -1.75996858344387
C           61.42262846999769       -4.30058054765040       -2.46336125459118
C           60.58036177737909       -5.32920781625241       -2.03738441131376
C           60.57141024636520       -6.55296043565520       -2.68742213314620
C           61.40398547841670       -6.75873548821147       -3.78540469909691
O           61.42512563486596       -7.93971682324226       -4.45339155344182
C           62.24573400772417       -5.73809521993456       -4.22509941251943
C           62.25539440087824       -4.52348081622224       -3.56372762478909
C           60.24021945158334       -2.29318712567575       -1.64431067164686
C           58.99779629825356       -2.70319007610320       -2.22540055134113
C           58.04650915086072       -1.86431878573342       -1.74402213775653
C           58.71310810242467       -0.94091094274300       -0.88244295100787
N           60.05640302224967       -1.17324002714812       -0.87222703084258
H           57.03551365168072        1.88052261632532        1.78895252446849
H           58.94375307562687        3.56643148685074        2.67018148791088
H           62.97678537792082        3.78815471778777        3.57954108019372
H           62.97836165588543        5.99172033294632        4.71133819230313
H           60.86981515121775        8.63223140724121        3.69733755877670
H           59.96876114202886        7.38529144480471        2.00116224295937
H           59.97249141795414        5.19069279023104        0.86493444581334
H           64.02493701547274        4.28719430045972        1.23938305103570
H           65.91495768114073        2.56328937268300        0.39448843370137
H           65.88135274893483       -2.61461669000322       -0.67644226360833
H           63.97441170894821       -4.28840182970105       -1.58207437989136
H           59.94280506843891       -5.17595654956974       -1.17382302506676
H           59.92169212414120       -7.35131823683643       -2.34528609749801
H           60.80177872073713       -8.57280649764845       -4.07239850786603
H           62.88311415098269       -5.91031912745422       -5.08354694069132
H           62.89963032481911       -3.72533345792293       -3.91510500705693
H           58.87688025517134       -3.52156753231639       -2.91628564507976
H           56.98876866405180       -1.85853179619663       -1.95146007079029
Fe          72.28863574351257        0.01034470660198       -0.04700769557494
C           68.87844715744866       -0.03080304385636       -0.06548653747336
C           69.53634291251863        0.97794900630455        0.65410659684255
C           68.86100953483108        1.95352777440504        1.44926793071715
C           69.80642645618479        2.82576075047587        1.87947562633565
C           71.05323727869254        2.38435369899811        1.33110512110645
N           70.87679189787895        1.21597090062846        0.63045091852510
C           72.24300584898729        3.09883986757103        1.40982338102453
C           72.23096080015547        4.42979122223146        2.05604962804635
C           73.05161513499962        4.69033980898623        3.15714673192256
C           73.04122402198236        5.92957325558867        3.77098814676140
C           72.21207425248916        6.93734926666219        3.28064934182560
O           72.23156891498813        8.14294317132659        3.90259790736386
C           71.39302491059102        6.69417300760278        2.18002369320285
C           71.40143925204218        5.44572481718518        1.57856972563330
C           73.44621353020868        2.61775775067684        0.90266156632172
C           74.66906343365601        3.36129970955164        0.89098054527161
C           75.63748404110892        2.51058527380147        0.46963846977371
N           73.65892754785321        1.34563260375157        0.43263395031344
C           75.00245097853909        1.25713375554033        0.21672936872986
C           75.69970717720375        0.07294660131724       -0.06418663676123
C           75.04481967424225       -1.13629031599100       -0.34207504993618
C           75.72514833937811       -2.36455610268378       -0.60237749539470
C           74.78231582636629       -3.25809718882861       -0.99194318452915
C           73.53011745728027       -2.56483567012213       -0.98226759773148
N           73.70214399407691       -1.27950610143544       -0.53085694007697
C           72.33714296728819       -3.09854118500882       -1.45920720270020
C           72.35783486831924       -4.44367521469077       -2.07578766840981
C           71.56880497761638       -5.47254679028295       -1.55896158892825
C           71.58516729267944       -6.73391381110384       -2.13260427645743
C           72.38803190581605       -6.97733939220291       -3.24498360835920
O           72.42946150795422       -8.19524518000495       -3.84176054228455
C           73.17680825937921       -5.95702531746071       -3.77431143691906
C           73.16293149697783       -4.70440185790503       -3.18807321656436
C           71.12520721862526       -2.42092164978247       -1.38715146869738
C           69.89431408097801       -2.90637402718205       -1.93419625411440
C           68.92519738754952       -2.04332329896314       -1.53999874482270
C           69.56893047644054       -1.03362293137772       -0.76141440731662
N           70.91427902747728       -1.24198551869629       -0.71511282397415
H           67.80235832247732        1.95635509088226        1.65208261866092
H           69.67908149839153        3.68735227692208        2.51437119613306
H           73.68695018916472        3.90272645613578        3.54646790932484
H           73.66851242014529        6.13081088456414        4.63053384321483
H           71.61980995450325        8.76539218211147        3.48683560834301
H           70.75395825800994        7.48311159051367        1.79820482173034
H           70.77408538295730        5.26244401392846        0.71339249150301
H           74.76643859944468        4.39890017028246        1.16562348037337
H           76.68978781690031        2.70383830656336        0.34315297455983
H           76.78800559182643       -2.51273466456463       -0.50576769516605
H           74.91599492389908       -4.29323813337369       -1.26052950463312
H           70.95300663393603       -5.28770489088825       -0.68585499765397
H           70.97734134045139       -7.53227192272215       -1.72060634003588
H           71.84183123946485       -8.82444727982298       -3.40197953742934
H           73.79159023602899       -6.15894827434771       -4.64269257486274
H           73.76575395586647       -3.90735468179948       -3.60858658326991
H           69.79299332853260       -3.78793607570932       -2.54594547906218
H           67.86909482983184       -2.07587467067436       -1.75325196138281
