448
 energy: -861.927703775733 gnorm: 0.000921757828 xtb: 6.5.1 (b24c23e)
C           98.74489042970912       -0.16837157131919        0.11594764226254
C           99.33830691041241       -1.03342024533782       -0.79419697006508
C           98.67046537253445       -1.89237298211896       -1.71184602040591
C           99.62042899822863       -2.57001402134031       -2.42253755260186
C          100.90004693006586       -2.15861236294854       -1.95121856515760
N          100.67847496474334       -1.22422936688066       -0.97917820421432
C          102.15655773446959       -2.59570681425993       -2.38445206317251
C          102.17773997154282       -3.62601461315047       -3.45248896681109
C          102.79837962844564       -3.34208185935709       -4.67236882800513
C          102.81687749720614       -4.30059237190140       -5.67754132602259
O          103.39987408777787       -4.09124625069840       -6.89990902386723
C          102.22518040282523       -5.54429616450283       -5.47190421877402
O          102.23272894491761       -6.50857553645072       -6.44523746713936
C          101.60782935856733       -5.83013079780180       -4.25304487521995
O          101.03839755093691       -7.04487428060441       -4.06121002552562
C          101.58139092480688       -4.87036115346717       -3.24769950595896
C          103.37889590254163       -2.13264124601297       -1.88949362107036
C          104.66829251802926       -2.66526945459368       -2.29084359619592
C          105.59937152769918       -1.96981117050047       -1.60515784130756
N          103.54852942241440       -1.14791850149345       -0.96530791846847
C          104.87877935365776       -1.01810972889071       -0.78249855764306
C          105.52869174284945       -0.07873508501891        0.04196286068191
C          104.90767841976051        0.87470454172187        0.86948745593847
C          105.56392715253877        1.84965400641066        1.66658815709363
C          104.60811848623675        2.56078964045964        2.33741746433500
C          103.33687555251835        2.03027286914986        1.98260970875133
N          103.56942587205410        1.02360278577842        1.08289328739415
C          102.08264155769695        2.44526939706332        2.44365947735138
C          102.06622006142528        3.53533035473646        3.44962074130955
C          102.71900829393772        3.37409973564941        4.67241703696448
C          102.70171004074153        4.39718936865787        5.61299653466720
O          103.32783460783158        4.24795634026484        6.80602345630064
C          102.03589951274793        5.59086628602661        5.33007965795747
O          102.03958153480457        6.58353066470960        6.27451232779950
C          101.38655546762719        5.75295040980713        4.10881735020999
O          100.75922467457262        6.95326315840996        3.90121306754598
C          101.39633687916898        4.72972240927524        3.16934559242628
C          100.86082188467603        1.90494037724990        2.02790772190183
C           99.56746922523068        2.28978900042562        2.57134153692507
C           98.64420400572615        1.55562190989901        1.91808829026551
C           99.37257918189469        0.71622925571186        0.98343078147104
N          100.70478083455090        0.94524962068641        1.08527413148072
H           97.65997667316213       -0.18833262514919        0.14153341258696
H           97.59924911860929       -1.96616417961867       -1.81121385886650
H           99.45520052776311       -3.28899771707814       -3.20838296157415
H          101.41271587356114       -0.74229095325481       -0.47140286055349
H          103.24902654637283       -2.37157531073490       -4.84385751049900
H          103.78238471248744       -3.20542593112713       -6.95061228783315
H          102.69722353545349       -6.14970901187538       -7.21806389523990
H          101.16294257668520       -7.57148243076090       -4.86802526045510
H          101.11567797294960       -5.11039571167618       -2.30060057681252
H          104.81964736767712       -3.47244390877859       -2.98924254317713
H          106.67211436871057       -2.07373864878887       -1.63716106439387
H          106.63209551758425        1.98573856971682        1.71365571241773
H          104.76722985786255        3.38425249907271        3.01420732442383
H          102.84052472705118        0.46985485823717        0.64503971364136
H          103.22323513409985        2.44642523707300        4.91056265989962
H          103.19557038016961        5.05957990604430        7.32320375666017
H          101.53231675721464        7.33239992804997        5.92271098328130
H          100.33199966861450        6.97264396010248        3.03483929916878
H          100.90241883877323        4.86923562332133        2.21493264753720
H           99.41253068498153        3.01206517908659        3.35677152906898
H           97.57239816939968        1.55367732571934        2.04093246672310
C          170.83394916821368       -0.02342674504862        0.25309787237560
C          170.22473746230207        0.87979734996949        1.11443120103050
C          170.87777959741837        1.79528083916765        1.98691306207634
C          169.91636503347991        2.49936310668712        2.65530569807439
C          168.64400698077722        2.02779748992265        2.22236194599762
N          168.88145516914739        1.06044183380472        1.28700682255978
C          167.38044318330935        2.46030159254282        2.63991516134652
C          167.34389186634459        3.51328565095743        3.68500863466641
C          166.72804622853553        4.73843536683021        3.41413718337668
C          166.69545832011417        5.72578273092818        4.39077470031837
O          166.11616970502737        6.95217593088482        4.19556522654104
C          167.26869079362291        5.49723131978075        5.63917128896732
O          167.24709358385172        6.45307708513200        6.62083610471939
C          167.88146708448406        4.27315264214844        5.91185359511143
O          168.43298563550954        4.05896400690660        7.13142090569264
C          167.92157897816571        3.28562572660923        4.93440721790675
C          166.16619027913782        1.97129543071828        2.15009696140751
C          164.86683195147896        2.37253472095483        2.65842403722954
C          163.94931672548540        1.68175677514376        1.95011853073563
N          166.01561959133269        1.04416725903294        1.16507859927496
C          164.68824544009561        0.85621332866574        1.01481165617528
C          164.05601586432766       -0.01139247786557        0.10330098925534
C          164.69044333100405       -0.87837131592524       -0.80433706083092
C          164.04754774875462       -1.69431887696278       -1.77298050467294
C          165.01421680906051       -2.36040693674468       -2.47347051467459
C          166.27931013985756       -1.98050272035578       -1.94528463896351
N          166.03166809410547       -1.07788696749879       -0.94481182574378
C          167.54225780713762       -2.41162036577531       -2.36536827634839
C          167.57911535757393       -3.40528624897546       -3.46605555127014
C          166.95634248206690       -4.64532384517005       -3.32020030771389
C          166.98876268385931       -5.56881636927598       -4.35859948964323
O          166.39168801092438       -6.77790655486059       -4.22427743037603
C          167.63939794782385       -5.25113573151931       -5.55204415436476
O          167.64988385337938       -6.17865780545497       -6.56038025127529
C          168.25958729767618       -4.01288864492803       -5.69822454365290
O          168.87385293248101       -3.77086719040207       -6.89902426490043
C          168.23518817587140       -3.09070324461158       -4.65969905199082
C          168.75571827357720       -1.96818863018821       -1.82795540562610
C          170.05945405813083       -2.48435067238983       -2.21502614044332
C          170.96962543118980       -1.81645801608985       -1.47762555489624
C          170.22314200663868       -0.89775774471279       -0.63651752292382
N          168.89324543847644       -1.02416217424741       -0.86690788601120
H          171.91891303362019       -0.03741850746008        0.28168867868375
H          171.94757654035209        1.89704180472641        2.07651512572561
H          170.06928667357695        3.28186826212797        3.38063836603401
H          168.15528745183065        0.55364332695460        0.79193566956109
H          166.29224588599925        4.92825014274257        2.44027929424289
H          165.74074698203697        7.01723314984332        3.30763307181681
H          166.78519174464219        7.23103167269767        6.26977264102747
H          168.30022528444312        4.85622835656618        7.67040215944257
H          168.38311408630074        2.33387399788336        5.16399036025348
H          164.69993536718530        3.07198988631382        3.46164939667528
H          162.87529705089159        1.70146962128434        2.04412553551158
H          162.98086487701471       -1.74826174390931       -1.91866173445369
H          164.86665486216066       -3.04643248927175       -3.29135002887675
H          166.75376661359337       -0.61802345827941       -0.40008904039597
H          166.46337830809543       -4.90985759197161       -2.39363412944532
H          166.52313955361925       -7.27690451979737       -5.04735501616239
H          168.13985716098449       -5.80145349667742       -7.30834167698113
H          169.27690961969793       -2.89282884330818       -6.90770633732044
H          168.70581982748431       -2.12284835695411       -4.78672549366542
H          170.22939222901633       -3.26425875984207       -2.93993467325809
H          172.04360993645903       -1.91867314711907       -1.47547708453414
C          106.93863481084625       -0.07452209312978        0.03947988710589
C          108.15538908133111       -0.06832025132427        0.03876931859335
C          117.83093665336668       -0.02050089693242        0.01442743642521
C          119.04893592882077       -0.00907675959381        0.01048062864700
C          128.72861501515447        0.02032796908783       -0.02500023890523
C          129.94709964188726        0.02503684248387       -0.03080359036066
C          139.63095641976710        0.03566817194327       -0.06723510092211
C          140.84954779997375        0.03612407832569       -0.07214159471994
C          150.53751786983460        0.03603608096995       -0.11593239375067
C          151.75626366043380        0.02942484514930       -0.11274210797815
C          161.42939787241366       -0.02049024018635        0.05377949043284
C          162.64559265858713       -0.01376063767985        0.08007892752236
C          109.56451354724042       -0.06299104905243        0.03817175952990
C          110.19421344819992       -1.30164564736994       -0.18513220521854
C          109.55306134678700       -2.55729772007326       -0.34127428433048
C          110.52075531887319       -3.50154104684989       -0.55268828786312
C          111.78203300134594       -2.84687785370409       -0.54063180255077
N          111.53494084388672       -1.52173240376348       -0.29996179399559
C          113.04235978205587       -3.42584738911474       -0.73808231386187
C          113.06560289163603       -4.87565123861677       -1.05003834558668
C          113.75440037143854       -5.75951130219780       -0.21790240824163
C          113.78459585314542       -7.12445240534270       -0.48921054293129
O          114.44428311587113       -7.99448717146730        0.31885860560910
C          113.12380105679152       -7.62209798740895       -1.61724832815914
O          113.13938034488135       -8.94750871660891       -1.91244704921382
C          112.43985512021412       -6.73063719443281       -2.44823465418719
O          111.81853608555886       -7.28207241698300       -3.53923370650716
C          112.40021532236764       -5.37076707895309       -2.17356499582105
C          114.26206260481868       -2.75035374875078       -0.66392831002709
C          115.54219128631929       -3.35709919639080       -0.97943007430911
C          116.47712890245148       -2.40652375748161       -0.77115482799210
N          114.43946203662213       -1.44997313388434       -0.29920146196054
C          115.76795646764020       -1.22169573837454       -0.33294408729191
C          116.42399918267515       -0.02402066758176        0.01811857053499
C          115.79258133897403        1.18234053003420        0.37824226201724
C          116.43219234250353        2.37793131351280        0.79482784224174
C          115.46442008948732        3.31880591990744        1.01875877158365
C          114.20361401945136        2.72514776237897        0.73992399435864
N          114.45186719410434        1.42899421145332        0.37347777610021
C          112.94410747196412        3.33182892631138        0.82141002607046
C          112.92499203586971        4.77597054762890        1.16198415637235
C          113.58055533194594        5.69830908106088        0.34529270288944
C          113.55543466046318        7.05162716439861        0.66108415593947
O          114.18167043372898        7.95604148955262       -0.13081922323330
C          112.88053984799399        7.48681974089980        1.80281469830290
O          112.87555634822533        8.82620278036593        2.09106179873847
C          112.23065837174124        6.56578614445070        2.62083502597863
O          111.59471241894910        7.06737428021228        3.72581660163902
C          112.24720309740684        5.21346413445800        2.30353097650444
C          111.72230131201951        2.68989841051025        0.60751362600125
C          110.43903622809867        3.36862192127506        0.61282074530984
C          109.50384340964962        2.41965893063538        0.39852652940482
C          110.21643694671704        1.16611525676215        0.25578450802184
N          111.54683410006753        1.36178833667886        0.36702337457988
H          108.48823582289548       -2.71433060357740       -0.28516342029817
H          110.37442661590673       -4.56022702193529       -0.69182668944376
H          112.25252611673746       -0.81039763558121       -0.20908058493472
H          114.25863303947888       -5.38609611399986        0.66629037283231
H          114.85527774898152       -7.53609816413826        1.06353773523360
H          112.62524793396523       -9.08411920329082       -2.72454871484539
H          111.37289144861288       -6.60292166980310       -4.06189682721212
H          111.87686741730194       -4.69909062749416       -2.84399091679041
H          115.68442573726637       -4.36577303598970       -1.33205506627427
H          117.54386873760717       -2.47334043877136       -0.91121582711762
H          117.49642099054718        2.49441919331458        0.91732779568549
H          115.60949193292483        4.33141885675448        1.35792313997005
H          113.73500690480724        0.75080296972777        0.13847739508195
H          114.09235270692180        5.37470000308289       -0.55189685204062
H          114.04516904425508        8.84005008452555        0.24818696153873
H          112.36335769998044        8.95467210387096        2.90535692864562
H          111.16697595307699        6.36067145018804        4.22712853339713
H          111.75107664129418        4.50101136868796        2.95205521914583
H          110.29450015260659        4.42899146410040        0.74259009163582
H          108.43457939638732        2.53603674428510        0.32331748590377
C          120.45550640420772       -0.00658151644612        0.00408800836770
C          121.08868390131798       -1.26425746562031        0.05367493061500
C          120.45559215017161       -2.52585147836921        0.18735207383170
C          121.42437284395191       -3.49173927592663        0.13856125339396
C          122.67805754380989       -2.84619249593138       -0.03429109739726
N          122.42678821479650       -1.50006836893159       -0.05672266523275
C          123.93401942749503       -3.45062364459670       -0.17851802273575
C          123.95630180622977       -4.93165312517706       -0.23336750121865
C          124.70925903044561       -5.65552938898810        0.69288053723193
C          124.73877280151736       -7.04668408905272        0.66317305081289
O          125.46052349652958       -7.76099153382902        1.56540690340803
C          124.01152498868083       -7.73531576829104       -0.31347136509504
O          124.02326099844615       -9.09164500739472       -0.37107862382195
C          123.26439430120692       -7.00413321925089       -1.24111515110610
O          122.58134529382841       -7.73916061651061       -2.17516486574161
C          123.22589671507026       -5.61733272532904       -1.20665237497441
C          125.15037314649916       -2.77063484859494       -0.27054543457880
C          126.42108184988383       -3.41732740078352       -0.54027405229542
C          127.35895874165779       -2.44742914228613       -0.50060781002388
N          125.33420317782536       -1.43084681093656       -0.10815305888732
C          126.66095111888806       -1.21220442119443       -0.21076205616333
C          127.32255346034030        0.01959522777023       -0.02483808526735
C          126.68873151018256        1.26383204615409        0.16515019204980
C          127.32178508696634        2.50529069124739        0.42596306740904
C          126.35331381032189        3.47091447261846        0.47804247329033
C          125.09905648524082        2.84560068220334        0.24518174569659
N          125.34997061361013        1.50877371361459        0.08623413514347
C          123.84303784585327        3.46241962517928        0.17019903888641
C          123.82697510896175        4.94310374718496        0.25290084825421
C          124.54998923056638        5.70630584750235       -0.66520616516626
C          124.53229527209018        7.09376346603846       -0.58727727762396
O          125.22543951296103        7.84296457589818       -1.47885446066649
C          123.79628529351780        7.72462218461569        0.41723575413378
O          123.80162880264128        9.09322782693209        0.47260590206629
C          123.07741666337762        6.96334960411262        1.33560205010926
O          122.38395389307792        7.65238536907003        2.29555881731873
C          123.08700000292333        5.57665584561582        1.25567906482109
C          122.62449365559900        2.79624401219284        0.02606766460016
C          121.34984425497969        3.46609962147030       -0.15618672339731
C          120.41177214730159        2.49679158200144       -0.20065476336923
C          121.11416196320583        1.23863870203592       -0.05206697695876
N          122.44220815365813        1.44678846848994        0.05431850038059
H          119.39580758954732       -2.67086876839042        0.31761029188446
H          121.28348666288514       -4.55652491196429        0.22768293963712
H          123.13994470469234       -0.78324127337301       -0.13799563727227
H          125.26468228807458       -5.13246107820952        1.46317958731281
H          125.91819524920828       -7.17868775114562        2.18593536606590
H          123.46005912859712       -9.36984137879966       -1.11132955940159
H          122.09244680268475       -7.16361578932336       -2.77748924318957
H          122.65269655697202       -5.07435095540184       -1.94898763801415
H          126.55504639917490       -4.46574048129776       -0.75225848273343
H          128.42021911356781       -2.53415566153868       -0.66752512178868
H          128.38182159412210        2.63656609397132        0.56661493515053
H          126.49438666290668        4.52155438300698        0.67195859533728
H          124.63691306077682        0.80408114793422       -0.06834273664212
H          125.10995075341509        5.22949074728428       -1.45935656187609
H          125.08278857612615        8.78021106345838       -1.26682574684759
H          123.23921422933390        9.36491409869305        1.21541569096829
H          121.90554892477596        7.04571074446358        2.87575463754882
H          122.53787129862827        4.99075564784588        1.98333503127179
H          121.21335280919759        4.53059812322546       -0.25749248157405
H          119.34759662419579        2.59909625149502       -0.33902627823743
C          131.35296934214853        0.02332277279432       -0.03201853237230
C          131.98593323792576       -1.23198353701792        0.07007572966710
C          131.35552597826180       -2.48742217959113        0.25883182357923
C          132.32420998301984       -3.45456186332208        0.23483534610620
C          133.57525077391514       -2.81588783240029        0.02306080404285
N          133.32304430322577       -1.47137630542963       -0.04383621073917
C          134.82881019725608       -3.42519451088815       -0.12279223980440
C          134.84987295233736       -4.90674123443552       -0.14142376466961
C          135.62514798203404       -5.60807690722806        0.78387224224112
C          135.65503004619964       -6.99950795598285        0.78716273593191
O          136.39805401576820       -7.69151015546192        1.68949125215335
C          134.90616457028719       -7.71169988020172       -0.15563586187338
O          134.91875773686220       -9.06889244030874       -0.18198591030521
C          134.13598048115813       -7.00322345942255       -1.08220524007171
O          133.43108219482517       -7.76104835212701       -1.98111668035983
C          134.09665811452635       -5.61613351019731       -1.07995754445609
C          136.04415407054250       -2.74856451929690       -0.24905804437303
C          137.30943454519101       -3.40138323862039       -0.52905032874778
C          138.24964364693727       -2.43288917639355       -0.51642888150422
N          136.23270202036758       -1.40700553025428       -0.10877470209256
C          137.55852352762096       -1.19276869649772       -0.23190602433336
C          138.22514836994850        0.03853167027282       -0.05996265434112
C          137.59340520788965        1.28479024086749        0.12491423512379
C          138.22571816048625        2.52725642780393        0.38165070583590
C          137.25716198255495        3.49351330296598        0.42476767897681
C          136.00406461541513        2.86776473456349        0.18735558629868
N          136.25508735145610        1.52985673436526        0.03881823867230
C          134.74935619258667        3.48414486259987        0.08945130819282
C          134.72904236263025        4.96496396334175        0.16413254095112
C          135.47021822238437        5.72863074232281       -0.73891865582782
C          135.44694930899169        7.11617358616796       -0.66332380832244
O          136.15802198464900        7.86614674618318       -1.53996327639272
C          134.68673083088873        7.74667036313440        0.32331051491352
O          134.68760961127686        9.11536209117300        0.37676573253500
C          133.94881896804714        6.98499156164471        1.22601925734860
O          133.23121963779599        7.67315365982994        2.16876972892981
C          133.96428019906429        5.59834278341725        1.14844659135209
C          133.53298048850141        2.81690842120241       -0.06810544359236
C          132.26504815370325        3.48586673844994       -0.29422555205931
C          131.32449048410629        2.51862880844264       -0.33198336981442
C          132.01804141928071        1.26307263597666       -0.13203077114656
N          133.34497708083828        1.46910427565952       -0.00925179836413
H          130.29775170492837       -2.62782817623838        0.40766446562202
H          132.18467381766595       -4.51520244335940        0.36559135322323
H          134.03438827357346       -0.75737332034874       -0.15860038712140
H          136.19792085663369       -5.06654831138726        1.52827674356890
H          136.86565912862767       -7.09418647595649        2.28790626594935
H          134.33482645752682       -9.36484936698839       -0.89896587277893
H          132.92815840160571       -7.20090812875694       -2.58643239444968
H          133.50540694873570       -5.09138893884822       -1.82125506765983
H          137.43799281969621       -4.45265823904772       -0.72989854668539
H          139.30804327994693       -2.52356982026290       -0.69861525860268
H          139.28509571197901        2.65929360419087        0.52643601082407
H          137.39796987957411        4.54502739646574        0.61401637466289
H          135.54312334428428        0.82360810670703       -0.11369150358433
H          136.04865402947630        5.25241954238344       -1.52006172717893
H          136.00869511388612        8.80323894894424       -1.33180274329032
H          134.10860474612787        9.38678312367789        1.10680434738643
H          132.74260025413855        7.06523564597304        2.73910346682267
H          133.39993190889834        5.01189244552457        1.86393442791728
H          132.13526878219321        4.54755458599481       -0.42853136169592
H          130.26427842687167        2.62049182880805       -0.49685442760753
C          142.25526993380535        0.03247439591886       -0.07782006402630
C          142.88770838801477       -1.22460328988845        0.00554998183907
C          142.25794565528327       -2.48272789074313        0.17742053503968
C          143.22676262599123       -3.44925532720906        0.13710251709792
C          144.47703373696004       -2.80740491104333       -0.06957553828286
N          144.22443996617781       -1.46206637931922       -0.11579596590637
C          145.72961350058767       -3.41393278152310       -0.23291299349901
C          145.75182557071111       -4.89508623027652       -0.27378828462004
C          146.53327027047891       -5.60830253492239        0.63712446008138
C          146.56514275981311       -6.99959829509346        0.62062377400632
O          147.31357203780806       -7.70316006755114        1.50938357335071
C          145.81272115676379       -7.69937200217500       -0.32860573098615
O          145.82766082828010       -9.05600145113063       -0.37483446836329
C          145.03646319162590       -6.97895320460526       -1.24081370963076
O          144.32830346977738       -7.72518974233595       -2.14686521688457
C          144.99454699540951       -5.59210110414300       -1.21825799778882
C          146.94421225713597       -2.73531647086729       -0.35687871322427
C          148.20613088404687       -3.38358273494155       -0.66105854024115
C          149.14787270560217       -2.41684675339341       -0.63451584594198
N          147.13580348053546       -1.39732171945886       -0.18953793305362
C          148.46141320457679       -1.18260781196749       -0.31584343836650
C          149.13133981020215        0.04246972509191       -0.11353993110939
C          148.50042525734176        1.28419910062557        0.10176783615003
C          149.13236182928861        2.51981516171895        0.39053742718190
C          148.16405787262210        3.48507074133493        0.45520186127592
C          146.91113560811831        2.86580223757383        0.20010656455863
N          147.16222093298160        1.53194543391646        0.01899269974457
C          145.65663401861320        3.48468651573028        0.11518516923398
C          145.63462400475595        4.96298601099430        0.22806271775823
C          146.37893180904837        5.75160801494797       -0.65065478034268
C          146.35184695026203        7.13665614050446       -0.53913673070271
O          147.06555057332147        7.91094018497612       -1.39226900883709
C          145.58475347034042        7.73967233322916        0.45927747733117
O          145.58168245935562        9.10655396425097        0.54797698077766
C          144.84378272279389        6.95315459119335        1.33782768549107
O          144.11910433635481        7.61505959061157        2.29389719580250
C          144.86309630238893        5.56908428219894        1.22433482424289
C          144.44017388885203        2.82201038510980       -0.06127036414447
C          143.17401811591742        3.49737230547419       -0.27860129791174
C          142.23205671278149        2.53257683568041       -0.33844155028702
C          142.92266788510096        1.27241096518109       -0.15929859848379
N          144.24978080424989        1.47375680374184       -0.02944845158771
H          141.20054867104611       -2.62544174466924        0.32663013948505
H          143.08785763543764       -4.51172286388075        0.25288629528728
H          144.93497216196621       -0.74572548654145       -0.22066369390978
H          147.10952844566995       -5.07642509251515        1.38578554790050
H          147.78190816694433       -7.11357179002708        2.11500874338422
H          145.24033632904448       -9.34259137047676       -1.09279733754348
H          143.82024679357784       -7.15768009100498       -2.74088498179647
H          144.39828664070549       -5.05776315782641       -1.94859399154543
H          148.33120424314299       -4.43028426777948       -0.88650864015230
H          150.20429143135757       -2.50499095852406       -0.82838621888726
H          150.19145260565969        2.64783039381598        0.54073004333995
H          148.30487927807781        4.53158662388177        0.67038289868202
H          146.45009791645830        0.83007452077546       -0.15188788479182
H          146.96234875758654        5.29726913104438       -1.44105481016622
H          146.91203143864837        8.84189078435389       -1.16089611800317
H          144.99846399487529        9.35748558612690        1.28196033338029
H          143.62929217633345        6.99158266716581        2.84612456103287
H          144.29602558424702        4.96310653165483        1.92115821041118
H          143.04625200058030        4.56160844984656       -0.39327340067046
H          141.17272530297203        2.63927400315459       -0.50574691921547
C          153.16263487452596        0.01894738605491       -0.10291714383072
C          153.78681235770489       -1.24431999825408       -0.06558104078283
C          153.14388849437057       -2.50382899982799        0.03583288226903
C          154.10534900779766       -3.47596437476246       -0.02500310460609
C          155.36576936069278       -2.83663909170523       -0.17028204922052
N          155.12430582373517       -1.48822848029198       -0.16731233604931
C          156.61841872690212       -3.45021464907819       -0.30253567136151
C          156.62564789155027       -4.93012002528613       -0.38849440019949
C          157.33974523839976       -5.68513225389304        0.54346529328945
C          157.35131792322807       -7.07570026013766        0.48257745801388
O          158.03328975600434       -7.82052664848476        1.39077715418923
C          156.64610150705477       -7.73165319092995       -0.53206179088271
O          156.64150402878948       -9.08633289961109       -0.62090820048954
C          155.93768417139123       -6.96916523960627       -1.46493822337073
O          155.27366608018900       -7.67302516236057       -2.43616159245420
C          155.91587823287935       -5.58318880883277       -1.39892593047017
C          157.84302586279145       -2.77985677754515       -0.34909763298347
C          159.11983239929197       -3.43367765112658       -0.57286229970159
C          160.06278332701976       -2.47262416002451       -0.48126048565180
N          158.02841197152915       -1.44421918742780       -0.16590892039970
C          159.36050894796179       -1.23362901018320       -0.21428940418231
C          160.02028008498436       -0.01350758613035        0.02580981619730
C          159.39693142421910        1.22904122047655        0.24295649909467
C          160.04186710683672        2.46253170469676        0.51750127257728
C          159.08199964112552        3.43583593037416        0.57699633719819
C          157.82289754402251        2.82580122388051        0.32614678448387
N          158.06127604857508        1.48867380682542        0.15550760150146
C          156.57396513463848        3.45390279379852        0.23421356473028
C          156.56364196526548        4.93212083255188        0.35707803004307
C          157.31146556284318        5.71863278998238       -0.52041051211784
C          157.30094220616337        7.10301760789785       -0.39851066107786
O          158.01980240028695        7.87581974330194       -1.24909973932930
C          156.54579651778377        7.70705890704206        0.60814721987321
O          156.55903327824115        9.07337798379953        0.70708799018596
C          155.80016373228429        6.92254196344428        1.48457862496460
O          155.08694849655535        7.58601701681512        2.44808041958165
C          155.80375552409186        5.53901392644111        1.36139415128631
C          155.35580407862290        2.80045864676446        0.03667796080220
C          154.09404947808994        3.48612029028113       -0.17350601901577
C          153.14993975185962        2.52665337808863       -0.27126138680568
C          153.83500769195592        1.25891595966054       -0.12533498579021
N          155.16076855834433        1.45233329290007        0.02764515100887
H          152.08239677351736       -2.64388830457892        0.15440805602089
H          153.95559703413971       -4.54130637824485        0.03952832926602
H          155.84389796071770       -0.77562384123065       -0.22549974029605
H          157.87747079537283       -5.18797790907706        1.34293516672959
H          158.48543925921527       -7.25917111345229        2.03419065625607
H          156.09942602264024       -9.33927483680926       -1.38563924634283
H          154.81599934845460       -7.07668343089554       -3.04276209992779
H          155.37170431164787       -5.01510213728402       -2.14438660830498
H          159.25478989503966       -4.48179321525903       -0.78550816044161
H          161.13185431768127       -2.56830194382977       -0.58427352364718
H          161.10464472254233        2.58359330926224        0.65049438420352
H          159.23235977016341        4.48324041024600        0.78103200006841
H          157.34302158417032        0.79433285117511       -0.02079082588305
H          157.88575445776502        5.26329419775135       -1.31688076587851
H          157.87681751644752        8.80646888922071       -1.00987484611139
H          155.97558136884479        9.32584503129045        1.44055061878611
H          154.59327733850003        6.96463554041177        2.99925400686439
H          155.23374188483871        4.93410130102794        2.05670382560941
H          153.97055205210060        4.55385445023708       -0.25609017338016
H          152.09277044162317        2.64207291546214       -0.44621179069847
