426
 energy: -844.002083192006 gnorm: 0.000461446075 xtb: 6.5.1 (b24c23e)
C           66.02811417295922        0.00346480923262        0.12581467890488
C           66.62593538063079       -1.20879098251661       -0.19275290977098
C           65.96428414697276       -2.44246296602662       -0.45056893524809
C           66.91626024322707       -3.37874027675849       -0.73923929198155
C           68.19044268797893       -2.74459152031886       -0.67558356214108
N           67.96502382730966       -1.44213409274658       -0.33306688510700
C           69.44725213586636       -3.32149388396139       -0.89007140789920
C           69.46374399522055       -4.75142526512344       -1.28231243507850
C           68.84093573762647       -5.16507691574308       -2.46278993999412
C           68.85744408466631       -6.49849190585154       -2.83722316407050
C           69.49762091683651       -7.41208882291276       -2.01562437793678
S           69.52986238289597       -9.09994536723512       -2.48847362603692
O           69.36210697738920       -9.23970646421213       -3.90546030144608
O           68.14853212742884       -9.57194630134038       -1.77526462112001
O           70.62186967647331       -9.78019433681551       -1.85798357218166
C           70.12417043955665       -7.03290900870888       -0.83957733487638
C           70.10492328912571       -5.69626777499836       -0.47698934454792
C           70.67003740563200       -2.65693524086363       -0.76453293279403
C           71.95820698488751       -3.26569961540744       -1.04631226063277
C           72.88842270876299       -2.31904702697348       -0.80584073319909
N           70.83807056015452       -1.36081574473476       -0.38552727552495
C           72.16699416613201       -1.13135437839605       -0.39074770548038
C           72.81649190141088        0.07118260374690       -0.04728435522234
C           72.19346154784067        1.28173181624701        0.30976400036959
C           72.85078454646228        2.48887915782421        0.66703235017932
C           71.89347204929526        3.42965696794555        0.92700502488921
C           70.62048212658756        2.82584766984345        0.72903938827415
N           70.85367866240898        1.52646411503262        0.36547671547369
C           69.36332381057348        3.41577102994307        0.90008193029764
C           69.34745130575911        4.85099014665852        1.27008216412220
C           69.91313531558072        5.80394478410904        0.41867148655398
C           69.90064412981324        7.14668793046613        0.75787444394764
C           69.32253005723032        7.52370379931708        1.95923065487162
S           69.30085480720744        9.22210880757866        2.39254771915207
O           69.39529923213499       10.04878490947413        1.22534028487042
O           70.72638178232056        9.28357336620606        3.16979078640872
O           68.26023812085246        9.49240516383944        3.34007094816529
C           68.75179832166609        6.60326791811443        2.82326176775780
C           68.76564425267620        5.26362805915497        2.47169945252123
C           68.13907090624569        2.75566929638132        0.74996680762646
C           66.83946838010831        3.39619310346633        0.88565064541082
C           65.91726233466635        2.43656103221506        0.67304410857715
C           66.65172170944265        1.21453926114311        0.39445236016055
N           67.98666572841157        1.44668018767555        0.44072245116405
H           64.94347953722738       -0.00484612351258        0.16219041543311
H           64.89597284211675       -2.58301338482470       -0.41143048238096
H           66.75661835355413       -4.42009672257087       -0.96724761593365
H           68.69553217591533       -0.75078902428080       -0.20040766758294
H           68.35852516198236       -4.43253256204035       -3.09942842447950
H           68.38872283126599       -6.82760022011635       -3.75613596503409
H           67.92854505873491      -10.47347519891683       -2.03982477170685
H           70.61963687020483       -7.77287768643897       -0.22371576620921
H           70.57925701541596       -5.38040401050051        0.44476369346132
H           72.10846861730394       -4.27480114359667       -1.39402246070719
H           73.95995935398390       -2.38870796888979       -0.90240339109911
H           73.92052302544393        2.61085051094824        0.72029940998115
H           72.05218256856585        4.44877747124526        1.23961457716966
H           70.12428707296884        0.84727571747194        0.17480441017464
H           70.34806996098733        5.49004813893286       -0.52310318200098
H           70.32592656035813        7.89420248414799        0.10004054135604
H           70.90983443566196       10.18586360804748        3.45846100769637
H           68.30375235960629        6.93360147548478        3.75196470086904
H           68.33593159046831        4.52624827091244        3.13954279873125
H           66.67950945559372        4.44046225601985        1.10035891982248
H           64.84186390477404        2.51839112910649        0.68648740054964
C          165.75827967665211        0.05391201458391        0.09686620060829
C          165.15760626733851        1.24616911257762        0.47915255286345
C          165.81710649238391        2.43328250980992        0.90572181049256
C          164.86221527766824        3.37354484308514        1.17097351742409
C          163.58822787562596        2.79348185017730        0.90611884663834
N          163.81687752007994        1.50912732949569        0.50280175183835
C          162.32908428103971        3.38791514450430        1.04610639890414
C          162.30826456266666        4.80781477777314        1.47287085847932
C          162.91583419320267        5.78953332739747        0.68572134600868
C          162.89629228289306        7.11776300687484        1.07804443884678
C          162.26843407389637        7.45077833575384        2.26734357753176
S          162.23442237824418        9.13103024989454        2.76633839990146
O          162.38158318716251       10.00520980487437        1.63952206714562
O          163.62822067694916        9.15818472584707        3.60099460607624
O          161.15433854085481        9.36508668619955        3.67810825542231
C          161.65637098618993        6.50070933627233        3.06870464770375
C          161.67846606709409        5.17610914759971        2.66457903198157
C          161.10757215640737        2.74964429755449        0.81574104151639
C          159.81650036217232        3.40771420839531        0.91243913386733
C          158.88858262563036        2.47115715714274        0.62773522763817
N          160.94324167846545        1.44762557881651        0.45575656245897
C          159.61412183208483        1.24733615370229        0.34611564828024
C          158.96767084271687        0.03914452803052        0.01651246255940
C          159.59402657977785       -1.17477966392192       -0.32266210716853
C          158.94060344278867       -2.39422039181268       -0.64340422218058
C          159.90036974120525       -3.32312141122145       -0.93527181129971
C          161.17085692317977       -2.69545110925386       -0.80794355417114
N          160.93404283445832       -1.40174041550858       -0.42699048173733
C          162.42960835288716       -3.27598995171767       -0.99842613263646
C          162.44981137790649       -4.68880336773142       -1.44618868562419
C          161.86462992495191       -5.05026266343165       -2.66271745180691
C          161.88369235172729       -6.36786559116205       -3.08904351914605
C          162.48795926001270       -7.31895231210111       -2.28287195818458
S          162.51969663828146       -8.98747191616961       -2.81936170030084
O          162.40083066900570       -9.06800580927378       -4.24556326745084
O          161.11158582640172       -9.46970018404826       -2.16790698670591
O          163.58057834267186       -9.70805142436616       -2.17962231499841
C          163.07759771990865       -6.99186385962033       -1.07256331669798
C          163.05694935709656       -5.67034958649328       -0.65836553144048
C          163.65244226160146       -2.62634958153797       -0.79877772715077
C          164.95277506252199       -3.23071335577895       -1.04696458262323
C          165.87322857608527       -2.29732333748733       -0.73372901262179
C          165.13673269199043       -1.11966135460252       -0.30830606374933
N          163.80231478620499       -1.35148330425364       -0.36916942253002
H          166.84339134742800        0.04950828569621        0.11527198306714
H          166.88611509641186        2.53906353358711        0.99852096549086
H          165.01997634776458        4.37838172090713        1.52778181265032
H          163.08742926363618        0.84765094206694        0.25874084638898
H          163.38878564037788        5.51058145371940       -0.24870151753984
H          163.35342096933365        7.88786510010160        0.46944677239825
H          163.85157540846626       10.06441611409027        3.84587109620435
H          161.16998792082200        6.79697308589594        3.98956118925320
H          161.21559771021955        4.41568964815014        3.28256876285977
H          159.66279193313940        4.44752776442521        1.15102725234430
H          157.81599534057258        2.57505716754674        0.59479536244031
H          157.87174222973925       -2.53425456425974       -0.64368959507979
H          159.74523370562036       -4.35519986785992       -1.20412731157984
H          161.66130458143149       -0.71803442728625       -0.24451757954100
H          161.40951453321415       -4.28891430164254       -3.28549929909257
H          161.44377898898992       -6.65641178966773       -4.03540814602117
H          160.93949239943186      -10.39250888740456       -2.39130502752019
H          163.54563328589359       -7.76004811760411       -0.46991118237558
H          163.50163448852263       -5.39563012900769        0.29093877309903
H          165.11425871866413       -4.22825853442406       -1.42247198603588
H          166.94847631366264       -2.36523541489225       -0.78471304704435
C           74.22268270835400        0.07763696868174       -0.05917962290829
C           75.44705526371311        0.08562671659208       -0.05934144093743
C           76.78997328395451        0.09134985255625       -0.05540063422901
C           78.02042806590183        0.09879261412050       -0.04676476888584
C           79.35841160534356        0.10619016984434       -0.03417738025826
C           80.58890386114011        0.11114994855113       -0.01951385829160
C           81.93146737308695        0.11635790451178       -0.00515477993327
C           83.15598804787699        0.12082964984583        0.01085380279193
C           92.82543352112874        0.00465805423926        0.00943880282670
C           94.05033364323272       -0.01628256224707        0.00054449718354
C           95.39176343408577       -0.03131850438455       -0.00906177717394
C           96.62291412707569       -0.03809710341100       -0.01710855221539
C           97.95972921663208       -0.03934901349192       -0.02270911833020
C           99.19091576866386       -0.03480832226664       -0.02126356573637
C          100.53234374461945       -0.02273407793230       -0.01686799936696
C          101.75735537088940       -0.00724466212678       -0.00736780622161
C          111.42551667439571        0.06625091408717        0.06218471146520
C          112.65066008046480        0.06328545932066        0.05936137461003
C          113.99208291720393        0.06411012969709        0.05388741578186
C          115.22327036439562        0.06693040471536        0.04907793396771
C          116.56000658847769        0.07108425431379        0.04318818524386
C          117.79127171153212        0.07672194881271        0.04169374490537
C          119.13270934942923        0.08149852854803        0.03860636272308
C          120.35784812026078        0.08563579616596        0.04041602125834
C          130.02644715431825       -0.00386687339934        0.00154811141459
C          131.25150805730607       -0.01794537072625       -0.00444969805701
C          132.59297555041417       -0.02716901655370       -0.01002757488121
C          133.82417366947962       -0.02717654006363       -0.01455251300186
C          135.16097994344258       -0.02201999279956       -0.01439145008713
C          136.39213510838553       -0.01283696213373       -0.00917563256472
C          137.73356925649495        0.00207137018283        0.00001824800577
C          138.95851550103993        0.01851025174822        0.01435866228063
C          148.62831478362554        0.06339875100261        0.09725326179532
C          149.85290767079280        0.05225057232973        0.09119760509510
C          151.19540903958207        0.04307109841442        0.08063359888348
C          152.42595744654224        0.03649997133040        0.06890132097353
C          153.76385900805198        0.03144776920811        0.05447968989852
C          154.99434032066955        0.02914255312489        0.04177234004972
C          156.33714853858447        0.02903834159746        0.03032015382236
C          157.56152149102184        0.03338295156838        0.02060420912528
C           84.56106711336427        0.12233698398530        0.02226855660171
C           85.19471603959151        0.80247527375749       -1.03529245360776
C           84.55269304472610        1.46951805707023       -2.11064099093647
C           85.52238418275573        2.01797680224141       -2.90450271087029
C           86.78558112696639        1.70608605286359       -2.33146963792286
N           86.53710184504695        0.96257142719200       -1.20953900325368
C           88.04933534879179        2.05999940710666       -2.81992654221516
C           88.07034476333867        2.90770294300611       -4.03738190259756
C           88.66217157104023        2.43891337054573       -5.21289789547986
C           88.68596436052054        3.22767007213123       -6.35130110295043
C           88.11467188335357        4.48866761052996       -6.29869899330814
S           88.15347231370954        5.49871023983007       -7.73124180507988
O           88.06316198850290        6.88635400622102       -7.38281992780770
O           86.72984902510829        5.05145637666706       -8.37308812393288
O           89.20068044017926        5.08175353641235       -8.61573742799315
C           87.52479428118868        4.98318433904012       -5.14676008675450
C           87.50230958541763        4.18403629880091       -4.01567313344020
C           89.27239020158677        1.68525855006709       -2.26164353929608
C           90.56237324043084        2.11581036005437       -2.77149395793203
C           91.49476551612031        1.54513134840336       -1.98144922038735
N           89.44228954145954        0.88924554254875       -1.17031984247403
C           90.77294685716340        0.77871304640291       -0.98468598210589
C           91.42186290524107        0.03211264040570        0.01969566652086
C           90.78731386892883       -0.68867613084168        1.04989250689741
C           91.42791511024579       -1.45356649056527        2.05876076274699
C           90.45866060062946       -1.96902584171837        2.87490946093873
C           89.19726698015897       -1.52655894246689        2.39040389041619
N           89.44627639249130       -0.76524203890188        1.28034561273142
C           87.93447947148630       -1.82180016201736        2.91840722607937
C           87.91480743522895       -2.63496309804382        4.15916285956536
C           87.29906611656027       -3.88897324333275        4.17153128874680
C           87.28218105428920       -4.65282376162750        5.32697164651142
C           87.88231287361336       -4.14604856025036        6.46813144203645
S           87.87499626754516       -5.11082399349465        7.93208687301124
O           87.67906108496251       -6.49614363720423        7.62343261685287
O           86.50785589658322       -4.53166877942059        8.59003194191469
O           88.96498303984107       -4.74790676824590        8.78981682929586
C           88.50193403436744       -2.90700689722391        6.48676934540194
C           88.51703183730498       -2.15374913317401        5.32455736893056
C           86.71155229752395       -1.41847832705295        2.37912309182895
C           85.42348824002228       -1.70723966855904        2.98491139714189
C           84.49048145157536       -1.17024351993871        2.17221093210848
C           85.21020522491327       -0.54365833408731        1.08079642021867
N           86.54080602153981       -0.69890432299297        1.23662171631631
H           83.48521605239495        1.51560194540395       -2.25324313926323
H           85.37742613612630        2.58002284409402       -3.81255862595619
H           87.25438649003918        0.58217681475782       -0.60122138968345
H           89.09431945987676        1.44538108372858       -5.23541380660428
H           89.14318750975578        2.87492853497603       -7.26718402332768
H           86.52445904801877        5.59730042529325       -9.14187900274597
H           87.09882904722961        5.97860306226884       -5.13729281191188
H           87.05782099042275        4.55734309669815       -3.10041364471868
H           90.71264360625032        2.77553841038310       -3.61046659033573
H           92.56819279236053        1.62654899285347       -2.04004293751780
H           92.49405990831802       -1.59037166030806        2.13982141629039
H           90.60274323997288       -2.60805991556788        3.73064796653980
H           88.73002877363793       -0.32613927984243        0.71166457653056
H           86.84640739475719       -4.27214632018340        3.26453883538597
H           86.81724705715192       -5.63049856398141        5.34481385692255
H           86.39296115664867       -4.88011445700466        9.48251712679614
H           88.96606914129683       -2.54385520719036        7.39511428310531
H           88.98641319170002       -1.17686448022734        5.32123819864393
H           85.27515530075367       -2.23714884692202        3.91171228404833
H           83.41804943805599       -1.17456167991363        2.28283599949901
C          103.16092087013058        0.01236986911683        0.00680227132861
C          103.78938868053615        0.69775092591359       -1.05116852846169
C          103.14269681119441        1.34492687483772       -2.13558408284768
C          104.10749060058002        1.90982467908717       -2.92413062427420
C          105.37178196558125        1.62885600646330       -2.33800720798425
N          105.12933654391516        0.88484430516240       -1.21486641937221
C          106.63183561348218        2.01130328707904       -2.81440643903590
C          106.64573060169295        2.85683342152547       -4.03347577662599
C          107.26238517265944        2.40073355154811       -5.20116872446606
C          107.28062499104381        3.18827245638052       -6.34055026639583
C          106.67863709364950        4.43521635598103       -6.29682859109353
S          106.71086859190825        5.44434197458274       -7.73040413136293
O          106.58756729752321        6.83054063608201       -7.38584980989441
O          105.30279444833876        4.96964195636705       -8.38609228636096
O          107.77655625247786        5.04709472339557       -8.60143834512748
C          106.06325159921816        4.91686641292432       -5.15280360591955
C          106.04670244721302        4.11905346090642       -4.02067506104171
C          107.85750269160830        1.66782515808294       -2.24190650343875
C          109.14211767081993        2.12841838783640       -2.73871498276348
C          110.07950555719165        1.58072354630505       -1.93832914704853
N          108.03480006077507        0.87771734337298       -1.14737125539193
C          109.36571618056833        0.79861998238021       -0.94808874273353
C          110.02180438256076        0.06737938444877        0.06298025505995
C          109.39408977987603       -0.66479099647723        1.08950031816797
C          110.04223190864276       -1.41281408782904        2.10603558540549
C          109.07713349814814       -1.94751378352880        2.91490867191264
C          107.81095782219447       -1.53444219237215        2.41765812418436
N          108.05304780260630       -0.77033145616576        1.30807595336097
C          106.54999111449301       -1.85629208926331        2.93487675370394
C          106.53658884842049       -2.66588068995053        4.17812281827917
C          105.95016607322428       -3.93387001891859        4.18832874467466
C          105.93824519642224       -4.69376505198535        5.34642020523689
C          106.51327457383209       -4.16885763345813        6.49232700924241
S          106.51074070142691       -5.12826426558719        7.95986323951353
O          106.37012506079496       -6.52087571917357        7.65358043176382
O          105.11044420824312       -4.59618392701301        8.58658071882057
O          107.57005604449745       -4.72383656096986        8.83709550778494
C          107.10362390609382       -2.91569422567484        6.51312188093836
C          107.11448988119010       -2.16658286631526        5.34814094994407
C          105.32381826438370       -1.48092740923345        2.38397309622760
C          104.03714158505207       -1.79418145305815        2.98017498672511
C          103.10008599791664       -1.27647646388675        2.15963165360046
C          103.81581806415396       -0.63840910261860        1.07221037983427
N          105.14743404216283       -0.76749069035511        1.23783455108965
H          102.07579361251162        1.36706177958458       -2.28787093648014
H          103.95856645033476        2.46361946808547       -3.83660139459202
H          105.84914906801284        0.52414527406149       -0.59759761191102
H          107.71866208507294        1.41791621634777       -5.21691054880291
H          107.75706988054806        2.84539146107513       -7.25035681701641
H          105.06681510502833        5.54636864790787       -9.12292029360936
H          105.61335539720210        5.90174973586839       -5.14997231764402
H          105.58264707528167        4.48287541955957       -3.11132837916989
H          109.28547400483782        2.79080773151109       -3.57679356069166
H          111.15124289977990        1.68770741021421       -1.98566576604871
H          111.11035389251812       -1.52562498735466        2.19729314055447
H          109.22740660351442       -2.58078468433611        3.77386270422822
H          107.33240192483818       -0.34863110955807        0.73181505074395
H          105.51649635485218       -4.33055327162277        3.27786873732444
H          105.49614182929929       -5.68200182895413        5.36288339309178
H          104.97959116662447       -4.96016801682984        9.47064268192003
H          107.54861777095310       -2.53839715271809        7.42526923103530
H          107.56106342062132       -1.17906263267425        5.34618475908895
H          103.89215826879813       -2.32562128982945        3.90661961111989
H          102.02715111234996       -1.30182321237462        2.26212990473570
C          121.76154857866696        0.08707486445111        0.04148251428454
C          122.38943304305195        0.76364870086995       -1.02242069873229
C          121.74151719810459        1.42516815165179       -2.09744110692905
C          122.70687626070963        1.97233518978171       -2.89766423328312
C          123.97296981030354        1.66535916045106       -2.32863745661753
N          123.73051344302151        0.92528600424622       -1.20287015511187
C          125.23399596176944        2.02139178291819       -2.82238164891962
C          125.24828026729433        2.86465871521564       -4.04308561592519
C          125.83621535090546        2.39252114030803       -5.21916177382393
C          125.85307254229562        3.17667847935747       -6.36089522094715
C          125.27897519839338        4.43647378028888       -6.31096820514276
S          125.30900961878581        5.44071986477487       -7.74803988363334
O          125.22125384319611        6.83026352211042       -7.40601220434528
O          123.88016257868263        4.99507624543656       -8.37874510518967
O          126.35125538358791        5.01794117286864       -8.63522072688633
C          124.69306519138112        4.93430952543241       -5.15842932123412
C          124.67740028295437        4.13975433063189       -4.02398522311634
C          126.46012530497623        1.65328347461287       -2.26632460908687
C          127.74679679793394        2.08805160373823       -2.78071985943968
C          128.68376193234374        1.52452480460341       -1.99088042515791
N          126.63631384387129        0.86133400235722       -1.17300846593673
C          127.96799649268837        0.75759727649553       -0.99025595978832
C          128.62286477259650        0.01603899365099        0.01397624180177
C          127.99417292282800       -0.70754708140620        1.04608428691634
C          128.64063724836524       -1.47025138614453        2.05268984775688
C          127.67565629280563       -1.98996934645360        2.87145242468041
C          126.41143856794183       -1.55193850452786        2.39096000053642
N          126.65410175599622       -0.78947602700844        1.28038735322345
C          125.15112754160380       -1.85038522506636        2.92374711571368
C          125.13733825104596       -2.66338056245956        4.16471570255002
C          124.52382743131062       -3.91849186204971        4.17893384461099
C          124.51027005410749       -4.68151366796620        5.33491391976307
C          125.11125429972462       -4.17271801311832        6.47477090068842
S          125.10608359921288       -5.13624019703818        7.93956483417361
O          124.93591342337427       -6.52521918595859        7.63148754510964
O          123.72223153826921       -4.58015008473691        8.58183203527582
O          126.18209749780304       -4.75425546961265        8.80639820398935
C          125.72902871806740       -2.93279456676836        6.49140241942414
C          125.74107623966881       -2.18042718685038        5.32851382265007
C          123.92559650758881       -1.44917960165842        2.38999213214425
C          122.64085381893518       -1.73808528965028        3.00249885233734
C          121.70351496828019       -1.20160319881009        2.19445381216597
C          122.41747967866455       -0.57605282644264        1.09864158806530
N          123.74833330724414       -0.73047202634865        1.24724600051820
H          120.67335299116601        1.46867775384880       -2.23563037753993
H          122.55698047029495        2.53062188778484       -3.80723319922440
H          124.45104690528376        0.54910265069813       -0.59577026200081
H          126.27074859470568        1.39998087597886       -5.23945736498422
H          126.30701338930547        2.82123312803985       -7.27735981189773
H          123.64126418364964        5.57917244369355       -9.10879760082812
H          124.26482590808639        5.92877919168109       -5.15107592850777
H          124.23601628011605        4.51572283727658       -3.10831622777466
H          127.89185734743165        2.74562805189390       -3.62229673279776
H          129.75665906619372        1.61082376067082       -2.05219464519774
H          129.70750835734498       -1.60305635848049        2.13065462535266
H          127.82461870506853       -2.62880980828028        3.72649890258536
H          125.93447477689368       -0.35259474079289        0.71424648681814
H          124.06990463419008       -4.30281999857890        3.27305560882266
H          124.04694795213652       -5.65992818479476        5.35433943931039
H          123.58656078903181       -4.95498015087908        9.46061775325820
H          126.19380426853562       -2.56805743423182        7.39877871985845
H          126.20876280365184       -1.20274113607650        5.32366209404377
H          122.49748047097644       -2.26741734090451        3.93039637861977
H          120.63170312260392       -1.20615551540296        2.31082676791760
C          140.36208988736061        0.03873229947506        0.03319134004048
C          140.99414432412763        0.72602504946535       -1.02119936084979
C          140.35122203254949        1.37629517179124       -2.10614487414087
C          141.31885741429190        1.94064154249899       -2.89136847591382
C          142.58144129733412        1.65661233216984       -2.30256662995889
N          142.33476009443152        0.91144419368019       -1.18101655787875
C          143.84318729908193        2.03700963123821       -2.77536606738155
C          143.86152212536777        2.87990066055324       -3.99615352794351
C          144.48061877793089        2.41920009776444       -5.16078745589738
C          144.49947111767790        3.20128439724705       -6.30386696760108
C          143.89567833409225        4.44758099211548       -6.26695929360392
S          143.92516612594451        5.44791001218268       -7.70680615914414
O          143.79373368877646        6.83583226423936       -7.37211596767915
O          142.51997338700019        4.96311649198619       -8.36167479201305
O          144.99428961562992        5.04978222783479       -8.57299664557742
C          143.27919857229986        4.93438547685539       -5.12571567568929
C          143.26221310382968        4.14203059597104       -3.98973371724461
C          145.06706186374831        1.69069680488040       -2.19979949407746
C          146.35351922678819        2.15104586581336       -2.69231371470443
C          147.28835470081839        1.59876495717644       -1.89215890505406
N          145.24037525664357        0.89683493683703       -1.10803036220211
C          146.57135738233649        0.81362229946882       -0.90662933519874
C          147.22331015591416        0.07266367391025        0.09910203010573
C          146.59221166313898       -0.66387511002699        1.11972467942081
C          147.23635501321826       -1.42127350865772        2.13205829554112
C          146.26850008761537       -1.95587090457110        2.93753526419186
C          145.00436970794470       -1.53352517365067        2.44253186480182
N          145.25036367860642       -0.76419110608553        1.33766903553911
C          143.74170685226875       -1.85221507220436        2.95768967674319
C          143.72315143800333       -2.66913199588931        4.19601900038289
C          143.12819573403652       -3.93325078822112        4.19807319248438
C          143.10927532818070       -4.69971909996080        5.35166139187465
C          143.68595945615672       -4.18527087336933        6.50151671750571
S          143.67279164639749       -5.15298523375030        7.96350148851085
O          143.53780206864079       -6.54389545310839        7.64723988015758
O          142.26643704933687       -4.62709428821788        8.58198254486655
O          144.72330556524452       -4.75192769593078        8.85294149932122
C          144.28514828072849       -2.93648328579116        6.53031650288548
C          144.30308644536154       -2.18080531904601        5.36962850043299
C          142.51749024701328       -1.46845389324799        2.40818946836349
C          141.22909977853320       -1.77889311008994        3.00241887598089
C          140.29462976989402       -1.25521026387056        2.18277958903079
C          141.01365995336852       -0.61611226714327        1.09809748488434
N          142.34462920251985       -0.75002221409496        1.26470492200421
H          139.28472093460505        1.40057837517992       -2.26093448567411
H          141.17300376405956        2.49606507773373       -3.80333975899804
H          143.05236487108445        0.54794862066264       -0.56282746657669
H          144.93766427240931        1.43666677454574       -5.17136427121723
H          144.97712919860939        2.85444553469700       -7.21152886349972
H          142.26924736885837        5.55081327198349       -9.08482454248862
H          142.82831644462877        5.91882297388876       -5.12810090803326
H          142.79695481448209        4.50987995925578       -3.08262863127155
H          146.49951073495848        2.81651216651562       -3.52750086218649
H          148.36035671515680        1.70413473966901       -1.93687270362722
H          148.30390986855895       -1.53970546917597        2.22292989422290
H          146.41535936555817       -2.59488906147989        3.79282610079079
H          144.53198899851023       -0.33547201489728        0.76375420203783
H          142.69300563863524       -4.32158634229702        3.28474006373144
H          142.66021604920383       -5.68489554853328        5.36181599184390
H          142.14003496646072       -4.97832022780909        9.47182089220591
H          144.73120729003273       -2.56742904297641        7.44531387327534
H          144.75645523402986       -1.19639665302260        5.37411208332135
H          141.08130554140820       -2.31264792370599        3.92708654460602
H          139.22151818090202       -1.27696864496733        2.28431366446253
