233
 energy: -356.534586437587 gnorm: 0.000982404700 xtb: 6.5.1 (b24c23e)
Zn          30.37461308560431        0.01074803265318       -0.00706729555129
C           26.95577999302146        0.07322482435267       -0.01550430844956
C           27.59695830174156        1.21037311589681        0.46250795370807
C           26.93874146113199        2.39316733288664        0.94514078458808
C           27.90957252887942        3.26481436990215        1.31757856495207
C           29.17296508002975        2.62396458859588        1.06639847941531
N           28.94861249062873        1.38186863536654        0.54899257984887
C           30.42745978991135        3.18821790332153        1.31450510812827
C           30.44780390349534        4.56874993362420        1.88215574751496
C           30.45718526011454        5.67374039503326        1.02603539198398
C           30.45535325687685        5.46673221342350       -0.46529758463615
C           30.46880089502300        6.95528075825692        1.56343043372860
C           30.46992095184921        7.15245002859592        2.94078991887246
C           30.49967735107119        8.54608616411679        3.50821203745165
C           30.46307966683853        6.04609236114882        3.78352637877392
C           30.45144296747251        4.75542390981120        3.26705856917620
C           30.44468136745986        3.56187184774690        4.18479519292640
C           31.66100950397407        2.57956868426643        1.07545895510777
C           32.94079647263977        3.17819244455601        1.33590091118366
C           33.88565070084705        2.27561623701614        0.96711716352008
N           31.85190195589188        1.32703591280935        0.55569150886270
C           33.19329770691132        1.11803577482430        0.47857093868585
C           33.81867848233415       -0.04775867823820       -0.00856561107892
C           33.15430732521779       -1.19366762110736       -0.49066645224239
C           33.80644608770874       -2.37631818156420       -0.97433885577972
C           32.83104972556978       -3.24764251051233       -1.33888205511856
C           31.57257050272229       -2.60378691647493       -1.08232972716919
N           31.80644381118196       -1.35696556522608       -0.56644146150643
C           30.31862272803685       -3.16782760696967       -1.32482980718324
C           30.29007138646013       -4.54757118774590       -1.89407161131566
C           30.30707595523115       -4.73162804394402       -3.27999160670173
C           30.36350250647690       -3.53682324797958       -4.19437012861374
C           30.27422832463217       -6.01992866580430       -3.79893759379949
C           30.22490665973029       -7.12831186799568       -2.95818930193759
C           30.17604446869743       -8.51476749179980       -3.54168380630433
C           30.20858765433222       -6.93400187651977       -1.58181411210636
C           30.24070537521470       -5.65310675337112       -1.04123616383688
C           30.22449359191165       -5.44965825775193        0.45049894119535
C           29.08441448397533       -2.55776165998395       -1.08330359685596
C           27.79982645266051       -3.15165306227995       -1.34231714918767
C           26.85947527449523       -2.24466877768194       -0.97612382745288
C           27.55777663266596       -1.08682310858508       -0.48941442832909
N           28.90274857221973       -1.30805103169864       -0.56747409480083
H           25.87034774380007        0.09318458184687       -0.01909004676969
H           25.86912297087316        2.52760200051079        0.98847162471319
H           27.79232004450861        4.25562607263771        1.72733016042107
H           29.57725073504920        4.89269178444399       -0.76741439521038
H           31.34119062295032        4.90589707439182       -0.76998199596587
H           30.44768453017906        6.42079161757628       -0.99159273684917
H           30.47459098521236        7.81296313775991        0.89864297673063
H           30.07676178426915        8.56671367920863        4.51279338565779
H           31.53082011926168        8.90259597136116        3.56527029439814
H           29.93890442445309        9.23424837966511        2.87491963452148
H           30.46417915095580        6.19020925594589        4.85909406135404
H           31.34510739797602        2.96339889117478        4.03215661151181
H           30.40510539399155        3.87248590390119        5.22848803264564
H           29.58240769646998        2.92617808051564        3.97485226160896
H           33.08819672133831        4.16389519896154        1.74784060516262
H           34.95822077191639        2.37648789059337        1.01769332979108
H           34.87495456824330       -2.51436368087527       -1.02353350701244
H           32.94446092981823       -4.24016898235536       -1.74516847156076
H           29.53135539394025       -2.86109697112528       -3.98807378114672
H           30.31603668779185       -3.84264467406970       -5.23915428090255
H           31.29058944374075       -2.98261122271660       -4.03435101882718
H           30.28718165044294       -6.16354270077367       -4.87451952022738
H           30.93450533800519       -8.63136325181049       -4.31716130088830
H           30.34181011772537       -9.26879643414324       -2.77234229989526
H           29.19964065556675       -8.69541071779098       -3.99646384934985
H           30.17055813811012       -7.79158155589157       -0.91802677100257
H           29.36167875107264       -4.84731989994336        0.74144055938415
H           31.12394627187770       -4.91944760263206        0.76967785448592
H           30.17697773490451       -6.40412824965836        0.97397194150657
H           27.64864615048459       -4.13736673733886       -1.75324610656970
H           25.78592544879640       -2.33953818837671       -1.02637646889919
Zn          62.51991232411773       -0.02308514251879       -0.04725094016387
C           65.93894165999635       -0.06569032345808       -0.08331409020156
C           65.29821409644975       -1.21306063430966       -0.53685434523338
C           65.95701832279549       -2.39864629235453       -1.01175721614403
C           64.98655220254473       -3.28087029870671       -1.35940643583751
C           63.72280337858647       -2.64364463135842       -1.10092055327446
N           63.94657078087217       -1.39334861534671       -0.60339380275106
C           62.46854976339566       -3.21783815707617       -1.32631870334857
C           62.44897691281979       -4.60569750451797       -1.87585384367376
C           62.44664751041604       -4.81011206234149       -3.25852886877942
C           62.45620661577209       -3.62822116575586       -4.19124861552903
C           62.43491043213215       -6.10698743438297       -3.75822979515600
C           62.42693455598781       -7.20285127277254       -2.90111853907466
C           62.39610971688319       -8.60180222861508       -3.45524275023787
C           62.42749843353313       -6.98813050096388       -1.52687342553871
C           62.43909339507844       -5.69946352939245       -1.00586952276397
C           62.43961718954311       -5.47375680425703        0.48273651555841
C           61.23462149957361       -2.61199047168619       -1.08207865050381
C           59.95508423236325       -3.21886853991420       -1.32396556489216
C           59.00976452221214       -2.31519366459815       -0.95908600870203
N           61.04310020083546       -1.35390878671630       -0.57611739583386
C           59.70155365083656       -1.14901656015166       -0.49057876296580
C           59.07579949696710        0.01972027617954       -0.01099065008487
C           59.73982514565679        1.17122629846353        0.45808408655259
C           59.08718089675732        2.35191705213689        0.94587716601195
C           60.06212230014160        3.23138289791095        1.29161199849447
C           61.32084280347237        2.59511242666104        1.01789733903816
N           61.08756236964139        1.34334938639377        0.51381435430891
C           62.57448015546755        3.17066682558563        1.23336327902689
C           62.60287718895565        4.55621766339052        1.78833548688371
C           62.58664545260889        5.65524249313521        0.92410988474293
C           62.53035044324339        5.43777415478094       -0.56462710354267
C           62.62094776682697        6.94004743383790        1.45151856801722
C           62.67109149137298        7.14711412987403        2.82724916213631
C           62.72093435620351        8.54746548705248        3.37642610912947
C           62.68627544844304        6.04744342350120        3.67742862896610
C           62.65263076049717        4.75279792575070        3.17066482216441
C           62.66818036959197        3.56588563488408        4.09685678361925
C           63.80896641736048        2.56657486299798        0.97850084070986
C           65.09327211389476        3.17284896918649        1.20869658405125
C           66.03411194882328        2.26666405833155        0.84180090069579
C           65.33638971565705        1.09737513063344        0.38239721767020
N           63.99128328006296        1.31110995177901        0.47712458864819
H           67.02442059690900       -0.07929381765552       -0.09414174622398
H           67.02675464307261       -2.52753723122237       -1.06730407894643
H           65.10428031231829       -4.27673247639569       -1.75657813284171
H           63.33286751435813       -3.00493927763008       -4.00461634663859
H           61.56905743088832       -3.01251685317619       -4.03013440949445
H           62.47234667080458       -3.95230016801853       -5.23144370365111
H           62.43450058535465       -6.26537475052219       -4.83179280648956
H           62.84515549043525       -9.30730486592977       -2.75579684628223
H           61.36263837810787       -8.90907994491968       -3.63181888233788
H           62.93163708730911       -8.65545463183352       -4.40353622916718
H           62.42140939070616       -7.83689462114630       -0.85072213843389
H           61.54108868053422       -4.93061429894188        0.78251882915473
H           62.47076354412795       -6.42072504106082        1.02088952575766
H           63.30421984441722       -4.87509695116700        0.77569872309709
H           59.80814450465543       -4.21012209726373       -1.72253972170266
H           57.93722984419095       -2.42096972529918       -0.99927264330778
H           58.01864704455067        2.48242923086119        1.01211926293345
H           59.94829968377346        4.22416572484877        1.69717227792438
H           63.36594901286912        4.81482738658653       -0.88918108763150
H           62.57210466629351        6.38637302406698       -1.09921868741064
H           61.60610014142787        4.92392248308447       -0.83638226774788
H           62.60897185730842        7.79360109023540        0.78145034605655
H           61.94488505939870        9.16502790192449        2.92174958705045
H           62.58171132937215        8.54875634403286        4.45738858167800
H           63.68759231974576        9.00361402703435        3.15251656045039
H           62.72477432310497        6.19834251141986        4.75119529461943
H           63.52884022736750        2.92933665414078        3.88256134806840
H           61.76688142302268        2.96570871823792        3.95750733786874
H           62.71903431043152        3.88383405756581        5.13780991760341
H           65.24395350833102        4.16614497332718        1.60112502465375
H           67.10762747300373        2.36921729064999        0.87457613135178
C           39.02248634488030       -0.10038727627462       -0.02250318211968
C           37.79437800580655       -0.09130589701988       -0.02120450173416
C           36.44879429601762       -0.08164365177289       -0.02074099635508
C           35.22512358149211       -0.06676961540587       -0.01523852251512
C           40.36799674605417       -0.10153004766737       -0.02195700370577
C           41.59175768963935       -0.09617013022684       -0.00785806735964
C           55.09997491010216        0.04595999738975        0.00716765834208
C           53.87186190488137        0.04263594645751       -0.00049792222683
C           52.52632823820493        0.03675952215997       -0.00080246067825
C           51.30251436305838        0.02119215666796        0.00285125936074
C           56.44562886479906        0.04506111349763        0.00613901462556
C           57.66931087364814        0.03683726671564       -0.00194196064214
Zn          46.44743931051629       -0.04301060352354       -0.00172000781500
C           42.99779850201253       -0.08784545561888       -0.00502426904204
C           43.64098162668615        0.07819187600358        1.23841569887246
C           42.96646168510475        0.22624667357055        2.49514225178760
C           43.92527838931610        0.35385566559352        3.44835764957921
C           45.19479473450122        0.28582869409700        2.78059624177279
N           44.98550883719199        0.11812041559247        1.43804033690038
C           46.43834529598433        0.37662019507563        3.40970617510759
C           46.43436570976629        0.55175632071594        4.89232866524531
C           46.42367074551400        1.83534512001153        5.44449411321222
C           46.41833872380037        3.04035883402383        4.54188811326744
C           46.41723809003309        1.98538908031419        6.82666913566916
C           46.42043789302339        0.87618510665775        7.66546114930991
C           46.43128827463242        1.04640207422551        9.16076782775898
C           46.43285356949257       -0.39740311771265        7.10495396953821
C           46.43938134211957       -0.57026911721755        5.72615521551352
C           46.45046984427100       -1.95081785630702        5.12552683951521
C           47.68505992579016        0.31625358510187        2.78328296258380
C           48.95105595680857        0.41201461607208        3.45426178953139
C           49.91482569217578        0.30980819037901        2.50297719603474
N           47.90130442806205        0.15759149345573        1.44072152915959
C           49.24688586730834        0.15006457235263        1.24419008063514
C           49.89651388406278        0.00390914986856        0.00165616517083
C           49.25346455102540       -0.15964970438238       -1.24222851980519
C           49.92770741989541       -0.30318671041249       -2.49960287721782
C           48.96874663508041       -0.43159670082160       -3.45257478948301
C           47.69944046528513       -0.36872389428111       -2.78402246689014
N           47.90889789227241       -0.20248930558224       -1.44130884630096
C           46.45595207592876       -0.46417486406393       -3.41246845450020
C           46.45949396559496       -0.63866706662879       -4.89512007220216
C           46.41625380746518        0.48286503430889       -5.72842341766828
C           46.36594734675751        1.86245515665920       -5.12757485175251
C           46.41869520802422        0.31044595333734       -7.10735380260987
C           46.46242285623979       -0.96214521730233       -7.66835422775127
C           46.48369517460007       -1.13173289012194       -9.16360528271041
C           46.50593144901039       -2.07090976718812       -6.82997924945919
C           46.50439139874658       -1.92132149004224       -5.44780887827344
C           46.54938155330880       -3.12571195622864       -4.54548628363988
C           45.20933011576800       -0.40934389332651       -2.78540129097292
C           43.94356561338402       -0.51517548941921       -3.45528493832831
C           42.97968948853121       -0.41140421428413       -2.50430186752119
C           43.64737610759088       -0.24164507418899       -1.24670001246508
N           44.99293079313038       -0.24545478119415       -1.44351969666987
H           41.89560736036955        0.22939580595903        2.62308700266826
H           43.79292795085923        0.48314956573183        4.51075720019653
H           47.30686097534069        3.04176956284766        3.90748811978771
H           46.40199113359749        3.96231181092496        5.12238238436690
H           45.54302543507866        3.02129966751765        3.88973789805324
H           46.40762337236324        2.98254393116185        7.25462981352230
H           47.45410746918039        0.96875692094546        9.53678386623857
H           45.83493333282415        0.27092407093509        9.64268822839265
H           46.03712205111944        2.02221570318406        9.44496081317920
H           46.43560918140025       -1.26833629163562        7.75230113979116
H           45.56730048322554       -2.09898356587364        4.50103432278283
H           47.33123737635799       -2.08179227941541        4.49390387481687
H           46.46089486151912       -2.71423679214727        5.90289434652212
H           49.07781624354583        0.54030108340015        4.51747063354577
H           50.98500106590890        0.33786054812979        2.63350780898401
H           50.99846804531168       -0.30382992427660       -2.62826283813030
H           49.10090764114678       -0.55776353683398       -4.51537620766261
H           45.46949025107295        1.97570156571221       -4.51477145409021
H           46.35632601144280        2.62609018284655       -5.90475696521739
H           47.23250705602322        2.02748590974302       -4.48445511621713
H           46.38432126578266        1.18101017331678       -7.75428191962843
H           46.11358616601689       -2.11647039684458       -9.44944529191798
H           47.50625472002694       -1.03081835493791       -9.53484005949137
H           45.87190582409724       -0.37025660932478       -9.64839353118854
H           46.53964269262708       -3.06733301783998       -7.25840163046212
H           46.56187928308414       -4.04767887435315       -5.12603857803974
H           45.67913870008893       -3.13802813281313       -3.88645711708358
H           47.44235468852739       -3.09513873202747       -3.91808648599837
H           43.81693862329948       -0.65211962264643       -4.51741880521941
H           41.90965739093559       -0.44600992693592       -2.63433428502746
