248
 energy: -453.295582005705 gnorm: 0.000334964113 xtb: 6.5.1 (b24c23e)
Ni          44.64485722198607       -0.21563755896828       -0.15006582963182
C           41.24057183720914       -0.18219996379260       -0.20989926350408
C           41.87883785331277        0.64835255924222        0.68662724911944
C           41.18665476983031        1.51392548933880        1.59168407638103
C           42.13519059767960        2.17907938995607        2.29284566891306
C           43.40119939307284        1.71909217820177        1.81001034933464
N           43.23976923585256        0.77653310007077        0.83292337405176
C           44.62217771328061        2.20979089816179        2.27420595895964
C           44.61190800055512        3.20698321508165        3.27422195426485
C           44.59810230402525        4.06486705182923        4.13200153204991
C           44.57980348019918        5.06616369004771        5.13016127402071
C           45.76399359922153        5.64567709229591        5.60007102346924
C           45.68999626025754        6.62313682714356        6.57644961492442
N           44.54083118488555        7.04493496056464        7.09791506697064
C           43.41066975251983        6.49849552840195        6.65678901813275
C           43.37534350518048        5.51560745877427        5.68379018022463
C           45.85061245500356        1.76450787063193        1.78593529330528
C           47.10383853167259        2.27636603521007        2.24228016328169
C           48.06704374255141        1.60405880296038        1.56625798622585
N           46.03554200837905        0.79174743972685        0.83687489013991
C           47.39525242548320        0.68447058286215        0.70441902523855
C           48.06937748074258       -0.21033199467713       -0.12923178426826
C           47.40786307636431       -1.11682363607542       -0.96083320011857
C           48.09247219403348       -2.04859493059597       -1.79922545996076
C           47.13912000905621       -2.74236359166044       -2.46744271367291
C           45.87907060188184       -2.22699034862363       -2.03458275892748
N           46.05005657238140       -1.23473404596447       -1.10315458742871
C           44.65837683001347       -2.67794312298714       -2.53701568878558
C           44.66506397851376       -3.69456743866742       -3.51732967613693
C           44.67022318984888       -4.56671528750658       -4.36071714960978
C           44.68056898656060       -5.58111019772928       -5.34571529901207
C           45.88095111370125       -6.14693340297757       -5.79086975652027
C           45.83772117543717       -7.13565619341019       -6.75764403497120
N           44.70355288426634       -7.58130786351926       -7.29201920954588
C           43.55818685275521       -7.04862530532316       -6.87392428810076
C           43.49211334788122       -6.05591175693605       -5.91245281273406
C           43.43148507035027       -2.16182730693495       -2.11844338702900
C           42.17425578493263       -2.60414101254602       -2.63915283254115
C           41.21579202784268       -1.90067414250885       -1.99084148830526
C           41.89313740366032       -1.03438351483374       -1.07527546844287
N           43.25526903678044       -1.19635003221341       -1.16663975626489
H           40.15700064521467       -0.16882434840122       -0.23143689593254
H           40.11339262496966        1.58826147349122        1.66511689047044
H           42.00885761481752        2.91919938554969        3.06664441285760
H           46.72164651648580        5.33184808071229        5.20263751600751
H           46.59286765514547        7.09041486158925        6.95896184784121
H           42.49134151872209        6.86570785326989        7.10384031083974
H           42.43209553906195        5.09773963995201        5.35321787699230
H           47.21522908345867        3.04990880523298        2.98484219628286
H           49.13787149041300        1.70680873175478        1.63580088886654
H           49.16436021977778       -2.14672992563688       -1.85778552845101
H           47.26167216192779       -3.53075685570113       -3.19241382385064
H           46.82719931337563       -5.81323804944274       -5.38240279266272
H           46.75376897529684       -7.59207086685116       -7.12152418744774
H           42.65184979144412       -7.43537298186505       -7.33093870392968
H           42.53727718290926       -5.64978712491626       -5.60108697914301
H           42.06020024070884       -3.35758266432242       -3.40193227683261
H           40.14467718979735       -1.95138726755928       -2.10466268737795
Ni          92.65485459258188       -0.24255982623624       -0.17759200945736
C           96.05689341222295       -0.37016828463944       -0.25743836892630
C           95.36124595422936       -1.52986512144125       -0.52586565801076
C           95.99312814952731       -2.77555774239731       -0.83646796095914
C           94.99967565736175       -3.66774728464470       -1.06205153578048
C           93.76695855748982       -2.96316500226791       -0.88523649728761
N           93.99261198093231       -1.65621597974805       -0.55345177960458
C           92.51500665074265       -3.55825006336435       -1.04361783428545
C           92.45470934183284       -4.92187801944346       -1.40621895481367
C           92.40062189195487       -6.09323121538741       -1.71758307058762
C           92.33141434273662       -7.45814803561664       -2.08025322444205
C           91.09959919336441       -8.09722840107982       -2.26337568688792
C           91.08460614796751       -9.43468380404061       -2.61701823430258
N           92.19083938315627      -10.15267248493873       -2.79379962811420
C           93.36573288044494       -9.55235651074475       -2.62158394040064
C           93.49009188288181       -8.22041011821880       -2.26835875419214
C           91.31928150585141       -2.86558383511217       -0.85318775617294
C           90.03471337796806       -3.47256967469318       -1.00144914516123
C           89.11814497237356       -2.51502815521991       -0.71939544135745
N           91.19926767060468       -1.54826962402769       -0.49015522960871
C           89.84933854552868       -1.32947082069698       -0.40366110442810
C           89.23395449703811       -0.12465973867822       -0.05531654817610
C           89.95242389294479        1.03646389107107        0.23691880223161
C           89.32772002367696        2.27253540139772        0.58539642912296
C           90.32480686584034        3.17000015201223        0.77841802791890
C           91.55135524428825        2.47468373600939        0.54821241440072
N           91.31671059183145        1.16387773293783        0.21953971006879
C           92.80255230520106        3.08337769789875        0.64625553567071
C           92.86623983033950        4.45308522601388        0.98457860531594
C           92.92963087711701        5.62885473384013        1.27689408323558
C           93.00862169987859        6.99842116366504        1.61946802865579
C           91.86056829197187        7.74166969280604        1.91679951217446
C           91.99503009910843        9.07825042508067        2.24812695853234
N           93.16997257575170        9.70063668041522        2.29863198435353
C           94.26610755539456        9.00099957564960        2.01672244458506
C           94.24061054663085        7.66058979850446        1.67519695263625
C           93.99743372632571        2.39527117005075        0.43169988372968
C           95.28626547698840        3.00737073613826        0.54048189921659
C           96.19911439157809        2.03834187951648        0.29274443403805
C           95.46245555961096        0.83987414796988        0.03118623172103
N           94.10964188127311        1.07004870999932        0.11494382971756
H           97.13975803337432       -0.41106606021116       -0.27994690204976
H           97.06022178808350       -2.92616657084475       -0.87442107472065
H           95.07465191601510       -4.71076131062352       -1.32477295227228
H           90.17443772875632       -7.54975131453125       -2.12940091311977
H           90.14313952936335       -9.95567311358357       -2.76562116810521
H           94.24792259571376      -10.16755869786958       -2.77373317967317
H           94.46731853198357       -7.77131413274040       -2.13826224683277
H           89.87193748586013       -4.50030909274722       -1.28321282465085
H           88.04277774622005       -2.58919247762061       -0.72126975110738
H           88.26260066878352        2.41820339552823        0.66554273926908
H           90.25310056349211        4.21040227303190        1.05157318288160
H           90.88371628281145        7.27427910632696        1.88785184398295
H           91.12127008895857        9.67879360750051        2.48421105115354
H           95.20793872632508        9.53977861054754        2.06721488765313
H           95.15780434712640        7.12848013868946        1.45329042790854
H           95.45117232202952        4.04583382348389        0.77899132977428
H           97.27514742559008        2.10807021412600        0.28287659643767
C           53.27251779582550       -0.23638582696105       -0.16038839386840
C           52.04542955129479       -0.21631337271165       -0.14232002161478
C           50.69922475306365       -0.20469164191813       -0.13146197675352
C           49.47640521433921       -0.20469267737402       -0.12762531806269
C           54.61774349542249       -0.27690185728397       -0.19126973154338
C           55.83904408966027       -0.32847484865746       -0.22917383484164
C           69.27298840039296       -0.20702294812293       -0.09477455841188
C           68.04490502598907       -0.20647761076101       -0.10434471835778
C           66.70073448937990       -0.23610200490463       -0.13397252337385
C           65.47899059172812       -0.28930588890231       -0.17704085286715
C           70.61739086957692       -0.23673738405898       -0.10801735257122
C           71.83950573277373       -0.28990520176495       -0.13824098162150
C           85.25983545878610       -0.06930510412081        0.03527252497726
C           84.03268346559565       -0.09497449352953        0.03263683694926
C           82.68797721582955       -0.14831120747070        0.00416602911633
C           81.46786915687493       -0.22044521726279       -0.04112250856881
C           86.60594141223321       -0.06660334542845        0.02067678797727
C           87.82846422854898       -0.08281726727663       -0.00767383033497
Ni          60.66153127965675       -0.55842010721074       -0.38323143727386
C           57.24213017735105       -0.40760908327666       -0.28412169486477
C           57.91334775601754        0.27844101253143       -1.29941532452832
C           57.24072101714561        1.01953721699507       -2.31790598279475
C           58.19463261565980        1.44415632418533       -3.18275893867839
C           59.44485889220500        0.97936951376842       -2.67273583158870
N           59.26668668145931        0.26949364561135       -1.51362237769989
C           60.66991245376364        1.25063902781087       -3.28356522565581
C           60.67088764783999        1.95087410908119       -4.50996874421387
C           60.66988569897106        2.54800711218785       -5.56609715745740
C           60.66880322134107        3.24847017517573       -6.79440692817259
C           61.86006611596524        3.51265517780723       -7.48007093190676
C           61.80465402645413        4.20328556942088       -8.67763866421611
N           60.66710224764638        4.63447132268592       -9.21652497549854
C           59.53036345851174        4.38743268381083       -8.57065978286834
C           59.47661350661713        3.70473777332007       -7.36844921384236
C           61.89422013241828        0.90680032735954       -2.71012977236277
C           63.15340444056574        1.29083404833140       -3.26356256527165
C           64.10365014714142        0.87819154264064       -2.38883450280070
N           62.06489413249783        0.24140840703185       -1.52287863060812
C           63.41911361082713        0.22412176685740       -1.32013208064517
C           64.07857068708101       -0.37706136540272       -0.24377270621650
C           63.40686785603098       -1.12783359031892        0.72554830976570
C           64.07937169538272       -1.84962818589467        1.75778659979226
C           63.12787784968502       -2.54531948731776        2.42790122570295
C           61.87889833039000       -2.22400128271900        1.81490130954538
N           62.05600462818705       -1.34902758542259        0.77398969972819
C           60.65596032924617       -2.72878547284455        2.25771457737888
C           60.65581888678197       -3.66719159540496        3.31304214188904
C           60.65566469657927       -4.47693161540509        4.21651088060970
C           60.65582318975860       -5.41721952722196        5.27253561399002
C           59.46145388433205       -5.95683709060268        5.76374454820058
C           59.51613350977757       -6.87209599431155        6.79986329556284
N           60.65585496575316       -7.26988510606929        7.35946547973586
C           61.79557560250580       -6.76145424398855        6.89809367478288
C           61.85023381235555       -5.84113169968085        5.86646852540536
C           59.43084678975750       -2.30778824434334        1.73935382740387
C           58.17195736725760       -2.72259028699691        2.27095128380801
C           57.21940316108349       -2.03705163155066        1.59210864764897
C           57.90259200183867       -1.22719066550633        0.63494854237429
N           59.25855816186375       -1.39880870345915        0.72731339273291
H           56.17461979534205        1.17345998172194       -2.36006102202884
H           58.07857410135060        2.02736414763358       -4.08195787162149
H           62.80863052914233        3.17962601059863       -7.07653916260172
H           62.71328312365953        4.42175362248906       -9.23123349357814
H           58.62103238752333        4.75367219544568       -9.03842490954936
H           58.52863391992398        3.52525131776726       -6.87582071058698
H           63.27745075847290        1.82057726324965       -4.19423164618688
H           65.17387286743865        0.99045166415052       -2.45251251900986
H           65.14392583938900       -1.82847963478681        1.92597728138240
H           63.24474565646804       -3.21081455320964        3.26791618492275
H           58.51101824944993       -5.66008662472308        5.33695565580468
H           58.60506206769623       -7.30692192742084        7.20069936409697
H           62.70664383748060       -7.10781076997271        7.37748207526583
H           62.80063444935077       -5.45218098804716        5.52150738687931
H           58.04948201482588       -3.43535223567509        3.07039275461875
H           56.14856236470344       -2.07306335774451        1.71054394643885
Ni          76.65730295598672       -0.54759656164451       -0.29753198480230
C           73.24039221336874       -0.37737331773362       -0.19341585696082
C           73.91283872497819        0.27615530733884       -1.23058746477107
C           73.24101825233581        0.98204465828157       -2.27418913445761
C           74.19602429566665        1.38079776256428       -3.15033561596809
C           75.44653303664631        0.94014993697817       -2.62027127199742
N           75.26598613101608        0.26301872390211       -1.44158520516115
C           76.67481000667719        1.22141179508744       -3.21939752561956
C           76.68260513040684        1.89304737906609       -4.46152244681523
C           76.69077483942000        2.46267665782171       -5.53270932820490
C           76.70104231324606        3.13080911998678       -6.77880998773568
C           77.90262388208477        3.43019992612793       -7.43123015117848
C           77.85848566515776        4.08654567158318       -8.64838339856325
N           76.72243353325025        4.45212387784606       -9.23669320936651
C           75.57594154496239        4.17124516524861       -8.62268208932202
C           75.51058201488891        3.51842225222386       -7.40456590505355
C           77.89672397891223        0.92179900300422       -2.61566377203458
C           79.15539253884107        1.34110167124525       -3.14403091182462
C           80.09894173012611        0.95829894681769       -2.24871378433383
N           78.06160069349467        0.26665332446277       -1.42261592526920
C           79.41223235921554        0.28295780274205       -1.19457051151185
C           80.06802469179078       -0.32726079811516       -0.12172951402000
C           79.39860415211189       -1.11311464020042        0.82009261472785
C           80.07096110577949       -1.86094296930588        1.83377282979508
C           79.12055850713563       -2.58035321425280        2.48011852150887
C           77.87157357061589       -2.24482457287527        1.87459460169570
N           78.04848579227824       -1.34331894450500        0.85711606930784
C           76.64649281455870       -2.74754173214354        2.31530695051647
C           76.64412334205808       -3.70910213422171        3.34948084590135
C           76.64118072743408       -4.54207904234654        4.23159882712239
C           76.63575781058385       -5.51026368417889        5.26209811004852
C           75.43851606983019       -6.06239297864644        5.73210970252223
C           75.48726030158058       -7.00582358543270        6.74293249095847
N           76.62382151822936       -7.41943293114659        7.29748159919673
C           77.76619589589566       -6.89922662452615        6.85622711585059
C           77.82678755926545       -5.95111760459966        5.85039861659400
C           75.42227701667815       -2.29788721695343        1.81951001748862
C           74.16301052243418       -2.69038685756597        2.36668847075090
C           73.21448643291676       -1.98432345991791        1.70301587770792
C           73.89950472325960       -1.18756129966026        0.73632832448743
N           75.25299182035263       -1.38093693394531        0.81381656845864
H           72.17461739691213        1.13128747152594       -2.32450066363186
H           74.08073989978166        1.93466003030445       -4.06800938622970
H           78.85036964083638        3.15065783242722       -6.98715453369777
H           78.77529887561904        4.33126586967721       -9.17694899408958
H           74.66814667349456        4.48382891119507       -9.13065637942083
H           74.55493117172880        3.30939331518366       -6.93917564358810
H           79.28339243098563        1.87266643439134       -4.07311789575569
H           81.16655686838571        1.10113002500904       -2.29121765821087
H           81.13487658156086       -1.83947390462964        2.00611031277069
H           79.23772149926917       -3.26842816105088        3.30171118363213
H           74.49051097450355       -5.75360300152327        5.30845540927292
H           74.57387705910695       -7.45106098195782        7.12675312067668
H           78.67452628833826       -7.25890822907088        7.33096748382188
H           78.77922960372794       -5.55351651677006        5.52128864040671
H           74.03764327828135       -3.40290737466960        3.16591719990158
H           72.14481991294153       -2.00102947564245        1.83560487308424
