202
 energy: -397.487342565517 gnorm: 0.000561205941 xtb: 6.5.1 (b24c23e)
C           29.51312052901632       -0.03004644788479        0.08648271155591
C           30.11052575929082       -1.24280877409008       -0.23031840648548
C           29.44733596868414       -2.47282064811187       -0.50168620844596
C           30.39933361627019       -3.41259969714902       -0.77777715225972
C           31.67556993251978       -2.78468702596605       -0.69176287383260
N           31.45056725808800       -1.48166676170481       -0.35108157852340
C           32.93255469504891       -3.36965058848995       -0.88067495021081
C           32.94428657741076       -4.79941388405456       -1.27411410203962
C           32.34231640595919       -5.20271380135243       -2.46899965730375
C           32.34753820149304       -6.53566460175436       -2.84513480998894
C           32.95616663670453       -7.45930683275245       -2.01098072943446
S           32.97137716996676       -9.14738940000325       -2.48386619251997
O           32.79516693273354       -9.28551052226521       -3.89999055530684
O           31.58973525891820       -9.60717488602215       -1.76319951277027
O           34.06043232420435       -9.83741391617976       -1.85900024548889
C           33.56315935682410       -7.09036080605884       -0.82145720866261
C           33.55501252006997       -5.75402737037378       -0.45692670694580
C           34.15714353928458       -2.71238641814952       -0.73237365385825
C           35.44742254418551       -3.33232151059738       -0.97911314244659
C           36.37796088968972       -2.38691565963330       -0.73565487530796
N           34.32460184892306       -1.41277871823141       -0.36810342182972
C           35.65529936326716       -1.18823098127238       -0.35463386000592
C           36.30244177865710        0.02032667199538       -0.03549026542068
C           35.68070041480299        1.23863734860555        0.29068438851886
C           36.33829861073332        2.45313149318366        0.62392061265926
C           35.38137489886853        3.39740654793011        0.87091856306656
C           34.10786782705963        2.78913345081402        0.68877809831365
N           34.34058056697488        1.48443150842780        0.34524544962650
C           32.85121572377057        3.37936310133763        0.86027308322939
C           32.83439094257184        4.81780691391941        1.21866631177646
C           33.38278411904617        5.76633698706821        0.35138707843394
C           33.36510014195366        7.11210368849512        0.67839251512013
C           32.79986029869884        7.49627000835470        1.88359373977482
S           32.76865945757418        9.19881261384201        2.29984659758641
O           32.84343148206737       10.01410644428850        1.12329247632292
O           34.20174333301036        9.28079588148729        3.06106339806413
O           31.73575585074528        9.46975492724350        3.25547467862141
C           32.24771602322031        6.57996649110408        2.76392542910548
C           32.26620933731707        5.23727886852019        2.42434259723082
C           31.62665672632922        2.71793644136937        0.71928803816274
C           30.32764365834577        3.35946518456088        0.85672083304831
C           29.40451084905807        2.40099142704368        0.64325143044021
C           30.13780947248064        1.17854215839098        0.36339222743563
N           31.47298052926836        1.40883544309494        0.41161177835925
H           28.42819528814760       -0.03550889139379        0.11317712944273
H           28.37788673320187       -2.60837977651266       -0.47991096636118
H           30.23841171172764       -4.45262660278574       -1.01085283946535
H           32.18188066278521       -0.79363963568145       -0.20624454503778
H           31.88402980586319       -4.46245167372094       -3.11448079113768
H           31.89361743048177       -6.85685246355549       -3.77421760959210
H           31.35885934108808      -10.50570235656956       -2.02868360568204
H           34.03440175296384       -7.83821953986407       -0.19617717393764
H           34.01308084431464       -5.44649878155446        0.47579917665724
H           35.59887216579876       -4.34794158420896       -1.30683044585026
H           37.45083026723047       -2.46363329953040       -0.80979413873747
H           37.40813105460482        2.57682887757043        0.67155400763306
H           35.54014468076526        4.42220205086949        1.16446210875126
H           33.61093439283967        0.80176437822109        0.16852909920358
H           33.80747282050890        5.44658763132428       -0.59308886734945
H           33.77571777278445        7.85656441705762        0.00790780277865
H           34.38234806688617       10.18884280142896        3.33310772875207
H           31.80979614632196        6.91569041497740        3.69551237168883
H           31.84996790108827        4.50304676418178        3.10409006309940
H           30.16884088851274        4.40352774410266        1.07323590206946
H           28.32919712117045        2.48379971016317        0.65722157345656
C           63.18013480809055        0.01286038215005        0.09441481539719
C           62.58376839096712        1.21142088225527        0.46300429440227
C           63.24813763470846        2.40190089445427        0.87258993062319
C           62.29678884487186        3.34682232340925        1.13299381093084
C           61.01987370839678        2.76683746702256        0.88090382619158
N           61.24374451331647        1.47761938771806        0.49061805413169
C           59.76324758288577        3.36649739553366        1.01967560876164
C           59.75072484312216        4.79119908749272        1.43041235409742
C           60.36301077307699        5.75944113308378        0.63019293906072
C           60.35847290167158        7.09159828839013        1.00922788832178
C           59.73998134453256        7.44240337219639        2.19826482762881
S           59.72787160953916        9.12731521795138        2.68254159223659
O           59.91977993646070        9.98850806522078        1.55244625908291
O           61.10162890619690        9.13418982906186        3.55019151541486
O           58.63117044331870        9.39058998691067        3.56594632544699
C           59.12135598932169        6.50646382233766        3.01120754724789
C           59.12882470664076        5.17761323849099        2.62050150616737
C           58.53874282969369        2.72958632521439        0.79918773653619
C           57.25000983234807        3.39345971448335        0.89028031207508
C           56.31849766366865        2.45828357883820        0.61320824422751
N           58.36975396961964        1.42550311553733        0.45214626388004
C           57.03910044584013        1.22861977537716        0.34317630279881
C           56.39021563654866        0.01974538860803        0.02775466579566
C           57.01093899589503       -1.20016922068366       -0.29447894925269
C           56.35276428991671       -2.41949911321537       -0.60813780897707
C           57.30877735853939       -3.35441040176785       -0.89186667498594
C           58.58209297341235       -2.73157505991814       -0.76623447360093
N           58.35051153674627       -1.43462446289314       -0.39391730739562
C           59.83814686045220       -3.31927766260920       -0.95137659413198
C           59.85312773609123       -4.73395997990544       -1.39411380466670
C           59.27458944137303       -5.09404610829859       -2.61419263345577
C           59.29371347002046       -6.41156173238624       -3.04070733782784
C           59.89085268731689       -7.36403319406148       -2.23089959548758
S           59.92788877195163       -9.03133362124863       -2.77109767046562
O           59.80964196874997       -9.10748746714812       -4.19762976925218
O           58.52193480817464       -9.52148229218755       -2.12062687702687
O           60.99125186948329       -9.75004732500535       -2.13327771230833
C           60.47207154063948       -7.03863597822151       -1.01608117584314
C           60.45163021372830       -5.71705065154954       -0.60178489112574
C           61.06379251878446       -2.67328087992055       -0.75730785015954
C           62.36171276287332       -3.28602915910434       -0.99789728191251
C           63.28587471106788       -2.35154904882883       -0.69938015146648
C           62.55409001948447       -1.16518370257812       -0.29022927368463
N           61.21884154437065       -1.39343131984142       -0.34483181663873
H           64.26530879250562        0.00650140289627        0.10760181660258
H           64.31787913515556        2.50635417786391        0.95813633314995
H           62.45870102209452        4.35489038161206        1.47860333451498
H           60.51183041844071        0.81518705066836        0.25683005116346
H           60.82890951593699        5.46644188678928       -0.30346622478933
H           60.82072412138934        7.85097598742795        0.39111095704302
H           61.34547138560390       10.03912161356881        3.77987159765994
H           58.64211197598496        6.81673530726610        3.93120773178859
H           58.66167905185230        4.42804320646167        3.24846836881118
H           57.10052759111179        4.43588531188904        1.12015867769471
H           55.24630520149587        2.56611978363606        0.57905977095656
H           55.28323315317201       -2.55454079848771       -0.61043323895001
H           57.14986479465980       -4.38736438524570       -1.15519991661943
H           59.08053284709429       -0.75230964686788       -0.21740139033361
H           58.82563543424802       -4.33148457071403       -3.23995835358105
H           58.86005323477636       -6.69888692840970       -3.99031069477679
H           58.35833418516442      -10.44671238027680       -2.34055444069223
H           60.93456189037320       -7.80782018922393       -0.41042750644434
H           60.89090042894018       -5.44348469465799        0.35037449665480
H           62.51936015541990       -4.28980102211799       -1.35808390001825
H           64.36080693995271       -2.42423341922671       -0.75037740164947
C           38.93361982449883        0.03946591219066       -0.04312625021708
C           37.71274567373652        0.02737274430391       -0.04338797916996
C           40.28607921713363        0.05044997205679       -0.03834889076074
C           41.50696598067989        0.06165637227677       -0.02578593278578
C           52.40683124603038        0.03130664636022        0.03084107190412
C           51.18578048784650        0.04250034297689        0.02907954517213
C           53.75913803090090        0.02252522309092        0.02577872003621
C           54.98016540314118        0.01986047806287        0.02415232544021
C           42.91635138992653        0.07249802873497       -0.01105950955860
C           43.54755944424628        0.78149374282557       -1.04846776900981
C           42.90566017449503        1.46248914099151       -2.11603750906795
C           43.87447304224207        2.03439991378309       -2.89337574051791
C           45.13792270644232        1.72524159155795       -2.31758816913178
N           44.88975602901810        0.95878016763134       -1.21134248188186
C           46.40054599446672        2.10289081721900       -2.78911701661556
C           46.42123147823968        2.96600772662254       -3.99576010458573
C           47.02744159062255        2.51649846031954       -5.17159432086202
C           47.04619548508474        3.31527495855736       -6.30296396922074
C           46.45560833504148        4.56711479676013       -6.24303051963684
S           46.48404666326274        5.58692343933150       -7.66888443392299
O           46.32793868098544        6.96736345680498       -7.31556560362507
O           45.09505719202910        5.08350835301592       -8.34489814304025
O           47.56658992177616        5.21920715753557       -8.53241835919075
C           45.85324133874317        5.04350722826260       -5.09003485084560
C           45.83605870193885        4.23431093772225       -3.96587808520689
C           47.62421284121868        1.73560204762807       -2.22489421568189
C           48.91211340590916        2.19860681286241       -2.71237968292967
C           49.84616050073406        1.62629809798207       -1.92578897132481
N           47.79585378464889        0.91919407905354       -1.15099138232643
C           49.12787840668721        0.82408418460376       -0.95452297117776
C           49.77654182934086        0.05442413380298        0.02901561692759
C           49.14476790488477       -0.70613069614526        1.02913666006648
C           49.78631537692398       -1.49112521884447        2.02295214121054
C           48.81748815401003       -2.03292216407605        2.82154978434144
C           47.55440500869905       -1.58872274437827        2.34124425494160
N           47.80249282276843       -0.80100163599419        1.25017686660316
C           46.29235820054937       -1.90285845412660        2.85889513149970
C           46.27305530813226       -2.73170419674012        4.08926688151905
C           45.66733103331008       -3.99059787613461        4.08549888554873
C           45.64543201728172       -4.76383713363212        5.23463069375515
C           46.23038139099571       -4.26146993768854        6.38559918938476
S           46.21182888942960       -5.23546208452729        7.84329678584733
O           46.02610467125659       -6.61979947159312        7.52398118419525
O           44.83479125536424       -4.66660478734365        8.48993002948313
O           47.29018475174634       -4.87264776093363        8.71580923449681
C           46.84166072636242       -3.01863277063756        6.41975757603446
C           46.86225324445573       -2.25623006721291        5.26366387356197
C           45.06816938145181       -1.49913577705036        2.32146253937271
C           43.77969727585840       -1.81020857261650        2.91628969068134
C           42.84568905559588       -1.26649232138048        2.10961305255945
C           43.56462920712033       -0.61237997177213        1.03346299319970
N           44.89671101874940       -0.76011354475480        1.19289156513243
H           41.83867016605925        1.50003593294935       -2.26500943263319
H           43.72951564411274        2.61123703529465       -3.79213094744539
H           45.60685994540205        0.57393858735340       -0.60565613814428
H           47.47409954040845        1.52954113903163       -5.19997783231433
H           47.51338868993788        2.97710802603429       -7.21931378622307
H           44.88654139327139        5.62232529311138       -9.11779205215704
H           45.41298030223503        6.03260942420500       -5.07438074222466
H           45.38141853078476        4.59343130171944       -3.04993165802958
H           49.05885212204219        2.87947432558494       -3.53496778197872
H           50.91863429769032        1.72672921907596       -1.97126901602700
H           50.85318396241898       -1.62094601117106        2.10650336204971
H           48.96173778904664       -2.69056651435210        3.66310372407807
H           47.08588248701628       -0.35212993146861        0.68965635596056
H           45.22549230864997       -4.36949607323557        3.17140377029028
H           45.18739429463430       -5.74490329777202        5.24054669361686
H           44.71419659142261       -5.01869149625653        9.38023811807166
H           47.29429662335594       -2.65919984457759        7.33534494855032
H           47.32472278599258       -1.27607608712227        5.27226364650392
H           43.63197079350071       -2.35863783146233        3.83235507665270
H           41.77285934766353       -1.28183687227418        2.21547231401520
