510
 energy: -848.936742948648 gnorm: 0.000475408624 xtb: 6.5.1 (b24c23e)
C          107.18515889567045       -0.08167878963437        0.06240423604333
C          107.79383129581588       -0.95020874209900        0.95961432710970
C          107.14182560209485       -1.86458144873972        1.83318138163604
C          108.10272222286423       -2.51584461176865        2.55502281466604
C          109.37235831140488       -2.01113899558014        2.15467127088272
N          109.13557493073313       -1.08010887330740        1.18293759844376
C          110.63376800818352       -2.38287300759143        2.63601539603005
C          110.66440102045033       -3.38785894369860        3.72435264911598
C          111.33963557997808       -4.59932618988707        3.55449422851439
C          111.36464833567985       -5.54555642562349        4.56331093526782
C          110.72324403081998       -5.29227595491320        5.77858961223642
N          110.71212179300555       -6.25260999189572        6.77541045554874
C          110.04288831623475       -4.08480190790003        5.95562697418485
C          110.01467335131984       -3.14797761985170        4.93770953644859
C          111.84727757059937       -1.87558932763050        2.16336880591703
C          113.14140604800539       -2.21340376035256        2.72716044223029
C          114.06166415754626       -1.54247593312591        2.00301509590476
N          112.00213089493502       -0.99702706328662        1.13441400434306
C          113.32801190201744       -0.78902098994595        1.00527592955589
C          113.96603557043370        0.01628663462266        0.03965915445195
C          113.33194535294042        0.81545550078781       -0.93091511073760
C          113.97802429582093        1.59913063149065       -1.92283383467999
C          113.01283332043361        2.24757749336440       -2.64323283152058
C          111.74672131900761        1.88648159677789       -2.10582674686936
N          111.99144878786257        1.00953552388799       -1.08165602452565
C          110.48610845009011        2.31802834975904       -2.53470844175814
C          110.45465768836578        3.31486833753195       -3.62954659399678
C          109.78923731720394        3.03802668625147       -4.82674401155577
C          109.75743006573072        3.96591334283254       -5.85231119441684
C          110.38168587231259        5.20620432226044       -5.69577293971688
N          110.38381995118991        6.12247150515955       -6.73323968909361
C          111.05412296245451        5.48919289458842       -4.50410726290107
C          111.08942523684226        4.55159303904890       -3.48732928155437
C          109.27026693897790        1.87401581594085       -2.00169052661946
C          107.96660902207169        2.37330565596094       -2.40951444505117
C          107.05310557839503        1.69533320957228       -1.68505841092343
C          107.79784081705557        0.79335286054631       -0.82514807608391
N          109.12970375707997        0.93691867560044       -1.03432253139071
H          106.09974447396847       -0.09491177688311        0.06223149111708
H          106.07362983743108       -2.00269307912673        1.88726613912562
H          107.95048929565436       -3.28624588130797        3.29344473501928
H          109.86178637086002       -0.56600777808186        0.69551320148550
H          111.83177743039019       -4.80743548354744        2.61078501516167
H          111.88254147232895       -6.48684568919783        4.41494094363036
H          110.53633418183959       -5.90117811388645        7.70311406187162
H          111.46383865522232       -6.92191019493340        6.72977456665515
H          109.54101594723352       -3.88322572151274        6.89575982502350
H          109.50147126008626       -2.20484157611865        5.09141478253055
H          113.30234318324148       -2.86244686284113        3.57276573728428
H          115.13379037599746       -1.53484176365547        2.11871886131810
H          115.04572048506760        1.64954371751978       -2.06375272856374
H          113.16214983399792        2.90865182865599       -3.48127933559214
H          111.26787742722023        0.56644866571050       -0.52512203778316
H          109.31090519618263        2.07391045862140       -4.96026285255055
H          109.24708084958516        3.73457321798572       -6.78092475132424
H          109.63564320073071        6.01337934037305       -7.39906034602765
H          110.54683512892670        7.07765556384194       -6.45732321300937
H          111.54357999755639        6.44878138792994       -4.37773348610760
H          111.59570297323947        4.78798803691893       -2.55767825809082
H          107.79738113164221        3.14820915502029       -3.13991152722818
H          105.97787620239082        1.78330463391136       -1.70109457639730
C          208.10187727326746        0.01403972921522       -0.11766219491899
C          207.49428762964965        0.66862222826513       -1.18167009495731
C          208.14792273648408        1.29025822157988       -2.28195823126081
C          207.18781749632507        1.82233366794645       -3.09654853869165
C          205.91696775090725        1.55242419684226       -2.51428023460695
N          206.15243918858860        0.84655479474227       -1.36828378096004
C          204.65570078557650        1.91005364489626       -3.00650362419516
C          204.62882728884910        2.71080319654094       -4.25326896390998
C          203.97807698355308        2.23367580222214       -5.39378676166766
C          203.95587403796500        2.97614512253616       -6.56096785594262
C          204.57541637253107        4.22765571561477       -6.60815379644993
N          204.58895586574133        4.95613928441953       -7.78524461592086
C          205.23238041159615        4.71020838295729       -5.47340742107508
C          205.25801275735819        3.95677804962168       -4.31315077711014
C          203.44054964224716        1.56945009357108       -2.40636575625362
C          202.14500229727309        2.00396570088758       -2.89581092867236
C          201.22415450474608        1.47832614194695       -2.06101384688694
N          203.28525631380720        0.81403402172789       -1.28372960508016
C          201.95872779151389        0.73448606834744       -1.05658686729582
C          201.32056359604042        0.04392431741917       -0.00582878061804
C          201.95335586863627       -0.65782879092453        1.03807285912635
C          201.30488205412931       -1.38643537782203        2.06974785396308
C          202.26915999439268       -1.92269511208812        2.87804977144546
C          203.53746172610312       -1.52797975298248        2.37011886544604
N          203.29422532487072       -0.77171934193863        1.25336891600044
C          204.79831813307604       -1.85733242941616        2.88058437049283
C          204.83094497910463       -2.66850125601890        4.11953478941382
C          205.46617840502591       -3.91308519548814        4.13646422133594
C          205.49835106538183       -4.67822293435454        5.28847993685251
C          204.90525653385350       -4.20463323936786        6.46169916582085
N          204.90251009489668       -4.98364313980129        7.60583925382135
C          204.26386962672825       -2.96333919566406        6.45237680387022
C          204.22768308327471       -2.20897624639617        5.29299667824628
C          206.01489467928803       -1.47734689469740        2.30168077477257
C          207.31928994856526       -1.76692276711350        2.87602865062907
C          208.23336751660742       -1.24434370387151        2.03326535849956
C          207.48853762149616       -0.62584112586624        0.95144334425093
N          206.15603981700744       -0.77701348947328        1.15140491027936
H          209.18726374578176        0.00713491892446       -0.13164990266734
H          209.21665385935484        1.31380405210791       -2.42443110205066
H          207.34115636648269        2.34682013408682       -4.02572912647207
H          205.42531962510478        0.49971714794468       -0.75160006897888
H          203.50290211770383        1.25917861632087       -5.36816402892392
H          203.45684312499557        2.58999071004127       -7.44307680001094
H          204.74519016722138        5.94496002129053       -7.67154002874022
H          203.84888490914074        4.73341083623780       -8.43164901054658
H          205.71783624590614        5.67959746631477       -5.50452513782223
H          205.75293859175139        4.34794132049709       -3.43079778138674
H          201.98314284596938        2.63851794675169       -3.75214458046427
H          200.15100853276144        1.57907546097096       -2.09399160691777
H          200.23615006623234       -1.48909412137372        2.16786983628088
H          202.11751964363162       -2.54770438952340        3.74290574755291
H          204.01915527572172       -0.37113917428697        0.66714416871848
H          205.92031337943709       -4.29211707409758        3.22747515361112
H          205.98466842118097       -5.64764448945794        5.28551524174958
H          205.63361403720762       -5.67531285538582        7.65154379581330
H          204.76765244005219       -4.47668202781382        8.46598190082073
H          203.79896144530380       -2.59161162645067        7.35904169173781
H          203.74574109048336       -1.23732642473200        5.30057918956849
H          207.48855788992464       -2.28518197473006        3.80627319751204
H          209.30922029802466       -1.25196095490124        2.11445893226422
C          116.59430241199890        0.04596755141479        0.02689621471708
C          115.37192956842952        0.03179673251646        0.03347561022606
C          117.94344573438767        0.05870095483079        0.02414814516498
C          119.16595293827039        0.06983127038767        0.01786227417679
C          130.04941954238481        0.09434784894244        0.01390146646495
C          128.82629828251845        0.09657769697225        0.01631096290080
C          131.39760518220868        0.09149628797255        0.01448541717362
C          132.62073763770806        0.08921949564663        0.01192217561591
C          143.50807985347339        0.07047779784472        0.01751756982308
C          142.28486577937900        0.07052432537269        0.01938913403415
C          144.85631036277755        0.06785221020788        0.01868383198682
C          146.07951937955940        0.07020357130925        0.01499633364950
C          156.96763803907729        0.06302851108722        0.01589422407986
C          155.74439985622121        0.06120558665263        0.01856893298133
C          158.31588165028876        0.05987388128942        0.01680445183192
C          159.53910478592618        0.06091548665335        0.01391942908479
C          170.42745498689436        0.06070929362042        0.01464738082177
C          169.20423750750177        0.06097313824923        0.01751516763842
C          171.77571562933446        0.05987053996564        0.01443267260138
C          172.99893347255269        0.06080878305444        0.01178827366368
C          183.88686802382600        0.06009710751754        0.02137635886391
C          182.66373348821327        0.06079134232871        0.02207828597234
C          185.23510650897038        0.06010607388686        0.02479465810508
C          186.45823395796990        0.06096360386176        0.02387658499978
C          197.34296222055778        0.05029765808255        0.03679840560021
C          196.12042360547139        0.05377503657453        0.04412176984560
C          198.69220425159946        0.04835583278516        0.02860519955507
C          199.91453844143538        0.04711700234473        0.01237468063669
C          120.57092471414913        0.07938661737789        0.01934801670279
C          121.19712495791772       -0.26917568667548        1.23203798484675
C          120.54826204707854       -0.65895293339211        2.43139935681793
C          121.51120938474415       -0.87083672896372        3.38083668802186
C          122.77594098572523       -0.60626336372802        2.78973965954684
N          122.53608549115732       -0.26115435343175        1.48633282766640
C          124.03294110970569       -0.68332029332898        3.40472570954366
C          124.04247285040442       -1.00937392004506        4.85032403150649
C          124.71191505402285       -2.14136848088824        5.32219298502549
C          124.71815001346015       -2.45154626333950        6.67037942976694
C          124.06364731493485       -1.62151033294726        7.58428863061220
N          124.03472216269272       -1.94920791063407        8.92862272938568
C          123.38833913261497       -0.48965049520615        7.12034518294962
C          123.37848227304194       -0.19249027326178        5.76916621082551
C          125.25650459949884       -0.47671695066489        2.76434912741134
C          126.53920327753738       -0.49480507112614        3.44340016462206
C          127.47713333393693       -0.28166624900890        2.49654832049699
N          125.43519836405076       -0.22805369580569        1.43690689592826
C          126.76514727839158       -0.12102008016619        1.24485839660890
C          127.42231313018478        0.09883978494528        0.01655870622425
C          126.79623431862849        0.32230694032014       -1.22586300598741
C          127.44590523774967        0.49805198385129       -2.47426862458411
C          126.48284200634164        0.70883643700167       -3.42383421438534
C          125.21696000923694        0.67964578771409       -2.77906635426413
N          125.45702786789211        0.43000760643875       -1.45364788914792
C          123.95903239561461        0.86248306808765       -3.36837002063481
C          123.94204350967431        1.17115266428785       -4.81761500341004
C          124.59549307743049        2.29971574987851       -5.31886978098999
C          124.57398186559169        2.58995934931374       -6.67159957903360
C          123.89740504017794        1.74882553948384       -7.55878523364807
N          123.91391598107269        2.00901941219870       -8.91808659775667
C          123.25356201115152        0.61014502066410       -7.06745517689892
C          123.27125707225208        0.33309379078570       -5.71238218817121
C          122.73569484069367        0.77124553258551       -2.70009181969759
C          121.45273128995025        1.04805297673362       -3.32013216461968
C          120.51496813751930        0.83034195044498       -2.37415829243905
C          121.22709883913926        0.43105656939294       -1.17731032548799
N          122.55782121985727        0.42100259571500       -1.39643907484030
H          119.48149110941708       -0.76642926239928        2.54417581550734
H          121.35960707506095       -1.19325912027237        4.39798440868618
H          123.25777619862437       -0.03767251369584        0.80923955999720
H          125.21415558554443       -2.79581888663670        4.61825796028369
H          125.23164576616961       -3.33940544710350        7.02291647515119
H          124.78253171495462       -2.54981878563486        9.23690998152761
H          123.84808287934013       -1.17914650070670        9.55091798518919
H          122.87587863041425        0.15700401139164        7.82428120309037
H          122.86843407088134        0.69877789472110        5.41997073988468
H          126.68168171536223       -0.63542115713507        4.50267326991528
H          128.54791831298633       -0.22387019331718        2.61052880351627
H          128.51333348014424        0.45939081344524       -2.62049401282392
H          126.63525872018656        0.85980597924448       -4.48000783014433
H          124.73466760914387        0.32904052802173       -0.74849875161221
H          125.10564253154696        2.96939578609050       -4.63498929321442
H          125.07794786824154        3.47382928546009       -7.04727036956909
H          123.16463301262343        1.58509130072356       -9.44154713800871
H          124.09060068035994        2.96947843882163       -9.16576198138881
H          122.73896068853992       -0.05431257004227       -7.75295129693854
H          122.77649796321070       -0.55708200598275       -5.33970521640173
H          121.31014201593814        1.38048882995925       -4.33566180686682
H          119.44409885353461        0.93122616640201       -2.45152173521307
C          134.02468050141331        0.08615016466019        0.01390345910845
C          134.64855409406664       -0.22082787865003        1.23955703747350
C          133.99638660039096       -0.56771943200514        2.45001749240975
C          134.95815952984304       -0.77093078176678        3.40265714634781
C          136.22553956353744       -0.54213658846881        2.80253614158236
N          135.98783713827871       -0.22485465876625        1.49143949419555
C          137.48284039196719       -0.62909751430911        3.41561281156647
C          137.49183942442176       -0.93746283389867        4.86518402190935
C          138.14438612845058       -2.07545496494341        5.34638047376445
C          138.15049366253348       -2.37204646406828        6.69755484377136
C          137.51286341337897       -1.52219503830972        7.60512744595528
N          137.48329481480067       -1.83599948886062        8.95285433869832
C          136.85475697622837       -0.38406615538483        7.13196815934218
C          136.84501109144173       -0.10027926200603        5.77783916964115
C          138.70851546889077       -0.44965954144762        2.77087185560143
C          139.99086039342868       -0.47227084263639        3.45051386333830
C          140.93109574052181       -0.27906270473281        2.50167897882387
N          138.89009611017548       -0.22079269912893        1.44029212529448
C          140.22117175163689       -0.12779268707228        1.24776678807573
C          140.88088244136540        0.07360561310705        0.01771394113204
C          140.25675292091279        0.27895646490963       -1.22895900736777
C          140.90864313552765        0.43688621091939       -2.47843764833289
C          139.94689524320984        0.62875880181468       -3.43343778183658
C          138.67974942234687        0.60506546602897       -2.79115480442230
N          138.91764184724931        0.37850391508247       -1.46128154682133
C          137.42254206956841        0.76997613090749       -3.38787605449107
C          137.41067181838289        1.05570899499781       -4.84201104276228
C          138.05811531867306        2.18227831000002       -5.35549301457474
C          138.04079113264089        2.45424431034528       -6.71202473212575
C          137.37421920284038        1.59647711960506       -7.59079770576515
N          137.39440681299675        1.83918810425530       -8.95330975415947
C          136.73700036419388        0.45946465402885       -7.08715581179803
C          136.75074066149324        0.20045774595647       -5.72839836206885
C          136.19709054512418        0.68540238863600       -2.72325950318372
C          134.91521916410849        0.93860019571702       -3.35540666453087
C          133.97502206112290        0.74531558715882       -2.40656494814205
C          134.68455698336433        0.38569282316046       -1.19571289287390
N          136.01549375868251        0.37101179092205       -1.41042530396927
H          132.92835417738323       -0.65592662237848        2.56748335442536
H          134.80349838553258       -1.06523383245962        4.42781836693803
H          136.71127063214209       -0.03149703779990        0.80695578661037
H          138.63344514762488       -2.74501088736640        4.64738487171184
H          138.65074718589298       -3.26453807136639        7.05731157157897
H          138.22253744444410       -2.44557945667861        9.26433078674498
H          137.31224259004989       -1.05655231753126        9.56790321923663
H          136.35552416604619        0.27803002498353        7.83105124722352
H          136.34882968436756        0.79597396715297        5.42153430028261
H          140.13172652637687       -0.60112116818764        4.51149203646740
H          142.00233277240105       -0.22980941461023        2.61544761425047
H          141.97651943953849        0.39968834660739       -2.62172925534126
H          140.10126456452349        0.76300212058110       -4.49157760753009
H          138.19431175963260        0.28742061168443       -0.75576071196133
H          138.56016426058827        2.86478426387897       -4.67832223332817
H          138.54001175714583        3.33670547982821       -7.09719803683859
H          136.64998782244282        1.40363109033344       -9.47414593437494
H          137.56553316542596        2.79762603813429       -9.21250948305211
H          136.23042175143189       -0.21788069174923       -7.76598184153953
H          136.26126486974684       -0.68859128586187       -5.34620313647820
H          134.77452702336041        1.24031995704817       -4.38071989968747
H          132.90410935522084        0.84016618725128       -2.49057296208885
C          147.48350115232182        0.06940724905478        0.01651967892968
C          148.10838191438890       -0.23498607878265        1.24237766783908
C          147.45731136624113       -0.58152377231886        2.45356178384234
C          148.41981377604591       -0.78230331385332        3.40598526482669
C          149.68659489074597       -0.55246471586746        2.80501445318357
N          149.44778541854637       -0.23674347909806        1.49368467655938
C          150.94428576174053       -0.63754176248759        3.41747158469507
C          150.95505818660706       -0.94592259777729        4.86707867604208
C          151.60868036254595       -2.08389154811831        5.34690606358736
C          151.61744199114301       -2.38067535624172        6.69799445984821
C          150.98160074269947       -1.53092316697821        7.60689683403677
N          150.95501070225950       -1.84478238468767        8.95465466247138
C          150.32234368361443       -0.39290387873346        7.13510873059332
C          150.30977135362542       -0.10901067507345        5.78100468091625
C          152.16950559828229       -0.45713154247807        2.77208946466634
C          153.45210810690662       -0.47793558602400        3.45131645313232
C          154.39185700018655       -0.28513974244866        2.50192280893513
N          152.35039247873286       -0.22945368444265        1.44124139637881
C          153.68135168714986       -0.13585199753338        1.24811680668749
C          154.34042498259564        0.06450498598911        0.01757746716828
C          153.71547575318999        0.26882788766556       -1.22884474497872
C          154.36650669760726        0.42686070364229       -2.47872925072354
C          153.40407310122447        0.61863825824739       -3.43306562430716
C          152.13735257593623        0.59444949553164       -2.78996240088522
N          152.37616869920706        0.36792269014616       -1.46028395031395
C          150.87969045454454        0.75838099732110       -3.38614597054372
C          150.86795512444104        1.04508652017137       -4.84015547419475
C          151.51391619410509        2.17316055199413       -5.35223745048766
C          151.49837488734971        2.44550475713806       -6.70869825182680
C          150.83528223915798        1.58650776234629       -7.58887398540996
N          150.85796960120479        1.82926060812952       -8.95132089196296
C          150.19928144185465        0.44822550848735       -7.08658134294127
C          150.21110181097433        0.18888958015901       -5.72785673844821
C          149.65452047125979        0.67159062975531       -2.72139384426865
C          148.37206787937802        0.92200044738493       -3.35345697522413
C          147.43234291040122        0.72684441698208       -2.40451756562333
C          148.14269896516024        0.36907312550658       -1.19356106533875
N          149.47360990648014        0.35697015241677       -1.40843141981383
H          146.38946585127130       -0.67120209664569        2.57160676041077
H          148.26613598382934       -1.07558551059883        4.43159248460627
H          150.17064986664644       -0.04322141586468        0.80864329807029
H          152.09660779912377       -2.75317910092517        4.64687542769099
H          152.11853077333365       -3.27312029006468        7.05666696883951
H          151.69475097844298       -2.45469349835130        9.26431664491280
H          150.78581441451678       -1.06533176244423        9.57017977674730
H          149.82451111798562        0.26910526003051        7.83525571527100
H          149.81266564527769        0.78716121637706        5.42578928538598
H          153.59343290303389       -0.60537674637319        4.51240349972088
H          155.46309504193042       -0.23488285733003        2.61522100967374
H          155.43429399773396        0.38984097548649       -2.62272797376156
H          153.55772744579599        0.75304900347017       -4.49128622747051
H          151.65330718561353        0.27658319865232       -0.75431386053749
H          152.01362886092423        2.85635401467364       -4.67404422504064
H          151.99654920385794        3.32902469682332       -7.09277061978705
H          150.11580993855165        1.39195123579576       -9.47387665376750
H          151.02758354624814        2.78803574918097       -9.21023614408349
H          149.69537401140104       -0.23001891356298       -7.76647815196992
H          149.72277318138188       -0.70126519217740       -5.34677742277555
H          148.23075122548110        1.22311784740816       -4.37886595912603
H          146.36121960553834        0.81937614102669       -2.48847002465443
C          160.94308337299191        0.06170845409785        0.01550217330758
C          161.56825645291687       -0.24214212095890        1.24135939919897
C          160.91747155413802       -0.58928811063224        2.45255024327154
C          161.88012861789019       -0.78942448179421        3.40495047150592
C          163.14673718750913       -0.55856120706976        2.80399298418608
N          162.90764941607657       -0.24290258932974        1.49266808726403
C          164.40448821766594       -0.64246985625381        3.41640664763761
C          164.41627441660012       -0.95095684225176        4.86597174399740
C          165.07268435907400       -2.08758260992922        5.34526061264454
C          165.08441961187964       -2.38363155134538        6.69646965318981
C          164.44883570361452       -1.53441773759969        7.60605521971638
N          164.42606401027652       -1.84715570656842        8.95416772086319
C          163.78621825388387       -0.39815312973573        7.13477386128229
C          163.77071236580269       -0.11497903854729        5.78053408130415
C          165.62958975346356       -0.46051352440603        2.77108641816842
C          166.91210870129942       -0.47918616760132        3.45056685959124
C          167.85178220011358       -0.28548653679806        2.50127160285132
N          165.81040816824748       -0.23308819392845        1.44022843245731
C          167.14131962767232       -0.13777738893564        1.24729968713019
C          167.80025143283535        0.06270743958980        0.01673704493346
C          167.17500644070378        0.26624273382446       -1.22965977228893
C          167.82585806086459        0.42490479810446       -2.47953141809801
C          166.86321780604223        0.61599346439672       -3.43379100731870
C          165.59654932325725        0.59067409380577       -2.79062880557827
N          165.83558478675596        0.36410475027411       -1.46102769191984
C          164.33878915707567        0.75374050786499       -3.38693160909005
C          164.32785268737973        1.04155456262724       -4.84074017747005
C          164.97352000208673        2.17064090184486       -5.35101049894641
C          164.96054428381510        2.44355806026995       -6.70736267179217
C          164.30039639850042        1.58408283650069       -7.58929350625058
N          164.32638764974001        1.82702695896703       -8.95162845222930
C          163.66421494299971        0.44514075901583       -7.08872844045695
C          163.67345180206851        0.18522402451179       -5.73007363604348
C          163.11361456101693        0.66536288802192       -2.72252004252645
C          161.83094580216147        0.91395239751622       -3.35483970847347
C          160.89133794444066        0.71787495935162       -2.40597711425827
C          161.60197880855088        0.36141664015695       -1.19476912565579
N          162.93289821203166        0.35079458383041       -1.40948264827017
H          159.84969137966610       -0.67977934166127        2.57059226766270
H          161.72671143299746       -1.08288942820800        4.43055008348677
H          163.63035625018395       -0.04880591206090        0.80762716901046
H          165.56072422180898       -2.75626190867722        4.64472686147408
H          165.58794002326917       -3.27486932959773        7.05474363984593
H          165.16798160168742       -2.45508923163470        9.26252314769498
H          164.25691858294215       -1.06740491596540        9.56934151496543
H          163.28837422097507        0.26328576843865        7.83544635843967
H          163.27131310093162        0.78008712963902        5.42575357153509
H          167.05347526934693       -0.60580026054401        4.51174277510256
H          168.92292205823972       -0.23357777257391        2.61476763738531
H          168.89366977958807        0.38880087939449       -2.62356089601645
H          167.01673619622809        0.75060503095160       -4.49199991638679
H          165.11285878856137        0.27216562546893       -0.75499668043605
H          165.47119723349297        2.85398953747801       -4.67147429886624
H          165.45869373463592        3.32770643667901       -7.09002527666045
H          163.58610704016183        1.38906722820566       -9.47629280493244
H          164.49606481029122        2.78591260905777       -9.21006553629960
H          163.16245361438732       -0.23334407556720       -7.76996854207723
H          163.18525726193209       -0.70560612615020       -5.35040537192067
H          161.68943378405643        1.21444991297410       -4.38040757822985
H          159.82010804260500        0.80894777370194       -2.49015852341793
C          174.40292973394375        0.06078585185351        0.01371389175065
C          175.02723376415719       -0.24203720298114        1.24028378675951
C          174.37551282996012       -0.58790260532238        2.45135723557483
C          175.33747873841591       -0.78836578796426        3.40437327001244
C          176.60459777845182       -0.55876633914615        2.80401146658256
N          176.36646891732175       -0.24348318860076        1.49239679410715
C          177.86194816149802       -0.64348361792746        3.41700004197359
C          177.87374822493749       -0.95271833869536        4.86633476469854
C          178.53170521249388       -2.08886723316202        5.34474205606485
C          178.54513216280213       -2.38520413564787        6.69585549451638
C          177.90959326036148       -1.53678837246714        7.60622750401610
N          177.88898955952698       -1.84957677032386        8.95437728078801
C          177.24503565685734       -0.40127713725642        7.13580364358590
C          177.22799082216608       -0.11772962407775        5.78164418316717
C          179.08744105121647       -0.46162011211650        2.77230234557502
C          180.36954330129583       -0.48010224986377        3.45259248192533
C          181.30974911695495       -0.28622052271253        2.50388663223848
N          179.26896376094513       -0.23414869304082        1.44163080495166
C          180.59999985650938       -0.13864565602620        1.24952099506628
C          181.25974805014346        0.06191114064592        0.01951012632112
C          180.63563383866591        0.26492660260433       -1.22741686207189
C          181.28742295027496        0.42322065285322       -2.47682315068358
C          180.32543716981553        0.61358027977705       -3.43188091591156
C          179.05827760904120        0.58826904913009       -2.78963964244725
N          179.29634484936236        0.36227407325069       -1.45982262516021
C          177.80089723333202        0.75093975178406       -3.38690919004060
C          177.79160605197714        1.03875706045573       -4.84070422250640
C          178.43890047939496        2.16740617313860       -5.34996500007518
C          178.42878456002916        2.44006130466017       -6.70638212335093
C          177.76982116296833        1.58079219460981       -7.58941513946116
N          177.79898275007398        1.82330070404892       -8.95177711209543
C          177.13171651003088        0.44248841704338       -7.08981390038679
C          177.13821999893116        0.18276183383811       -5.73108260408670
C          176.57527202798599        0.66244930703617       -2.72338248346215
C          175.29298093733266        0.91029416182879       -3.35677263195391
C          174.35275217355820        0.71472435441649       -2.40841695006800
C          175.06261195159411        0.35931206115028       -1.19643035538371
N          176.39367255205008        0.34866374079760       -1.41026146345678
H          173.30759816136248       -0.67740704211586        2.56891840296582
H          175.18326720175241       -1.08119932077732        4.43003212075157
H          177.08965942787842       -0.05024716086089        0.80762066954122
H          179.01983317256537       -2.75680983916347        4.64356492026063
H          179.05013347840830       -3.27588958834171        7.05345446238637
H          178.63233955119802       -2.45626755526443        9.26178138752021
H          177.71941804101505       -1.07003460838103        9.56970902727196
H          176.74712921146497        0.25945635842809        7.83711583383111
H          176.72746457562454        0.77699717013501        5.42756989190767
H          180.51039630401672       -0.60653625015249        4.51384938741721
H          182.38080677946539       -0.23416394887427        2.61805309095904
H          182.35535392137592        0.38734017502346       -2.62002401507636
H          180.47978692978805        0.74762814839808       -4.49003960120431
H          178.57317366080221        0.27049643091336       -0.75423216835440
H          178.93574555255987        2.85051957640789       -4.66958053553903
H          178.92839231144924        3.32373159486029       -7.08827414265707
H          177.05932716152083        1.38609823841661       -9.47793862847194
H          177.97049474580507        2.78190093250615       -9.21012508518738
H          176.63078278878737       -0.23578412976218       -7.77189064779130
H          176.64880062616572       -0.70774764056886       -5.35221762701187
H          175.15213467564180        1.20996288053157       -4.38267605366091
H          173.28155650623461        0.80546717554881       -2.49341580584445
C          187.86233320489163        0.06100327823329        0.02820078456687
C          188.48433706362337       -0.24664148506959        1.25456825732998
C          187.82972965080270       -0.59270191802101        2.46421186978323
C          188.78973878509868       -0.80293001700015        3.41692230578242
C          190.05878823266912       -0.58028753850082        2.81778944928427
N          189.82336008145356       -0.25717645220066        1.50753586199829
C          191.31516603278402       -0.68215696395429        3.42954928920688
C          191.32424590493744       -1.00176973792080        4.87685345917102
C          191.96449037940948       -2.15121126403177        5.34717905512501
C          191.97549645766941       -2.45565894404004        6.69658144101942
C          191.35558944682361       -1.60235517451506        7.61310679716743
N          191.33262258330677       -1.92250577386716        8.95958561306026
C          190.70847239051218       -0.45360839328430        7.15063586652145
C          190.69348356160944       -0.16196925426267        5.79815268228794
C          192.54208372008861       -0.50713360786062        2.78543230352531
C          193.82493007138797       -0.55031665139183        3.46342825099446
C          194.76566698949838       -0.34949421367412        2.51682974432139
N          192.72382155241127       -0.26012833998890        1.45867203524252
C          194.05568866648653       -0.17213954379300        1.26631562144696
C          194.71524965610465        0.05656941670561        0.04199707444273
C          194.09378886839247        0.29078722155376       -1.20019213675092
C          194.74876620592934        0.47712816520625       -2.44437706779796
C          193.78893866646470        0.67838661843000       -3.39905896638395
C          192.51969446043023        0.63211306819968       -2.76187774368057
N          192.75466256076896        0.38532218391077       -1.43529920136711
C          191.26310898760698        0.79027991904003       -3.36150695224002
C          191.25605143087867        1.09100851981034       -4.81291985383495
C          191.88884094285476        2.23335485579630       -5.30943952644486
C          191.88251288567514        2.51631310200770       -6.66381957650031
C          191.24241809810022        1.65366664675087       -7.55737863319166
N          191.27682361582836        1.90653103660374       -8.91767586483848
C          190.61845565875180        0.50217253233862       -7.07030352997999
C          190.62071514890661        0.23222815519991       -5.71351653317135
C          190.03655425926871        0.68476359373698       -2.70247585293729
C          188.75401582764405        0.92624769296164       -3.33776691919490
C          187.81319960510902        0.72061964590207       -2.39220657327117
C          188.52290536266725        0.36461812904179       -1.18013232616377
N          189.85431550890198        0.36249210885897       -1.39153215151491
H          186.76118220667840       -0.67551789319096        2.58089454313331
H          188.63331077198694       -1.09812037925356        4.44158210792047
H          190.54840556517712       -0.06535966930700        0.82431537369371
H          192.44062127512686       -2.82274725239480        4.64119138000176
H          192.46659903910091       -3.35651242705765        7.04803106776776
H          192.06684774493215       -2.54279555290885        9.26178996292825
H          191.17764634542235       -1.14355804917762        9.57952871939639
H          190.22256038150056        0.21094315947519        7.85675185126988
H          190.20643605089549        0.74249336921148        5.45007536684405
H          193.96593883059575       -0.69701564554501        4.52205830188636
H          195.83734682543235       -0.30977334056480        2.63011269489611
H          195.81736065857942        0.45066359485173       -2.58455487094119
H          193.94584185928426        0.83299044561182       -4.45403118844256
H          192.02941061058971        0.27564959867583       -0.73440992152736
H          192.37147305495449        2.91840192912648       -4.62081763946135
H          192.37080513406605        3.41040163015741       -7.03596937717353
H          190.54825836109404        1.46112966032666       -9.45228705615409
H          191.43522567187603        2.86940707704953       -9.16831598777130
H          190.13206704940262       -0.17842422524735       -7.76056312355481
H          190.14236048455595       -0.66827705093829       -5.34424999459344
H          188.61363856831889        1.22869112541886       -4.36292693808944
H          186.74161641078393        0.80463227668331       -2.47909980944980
