132
 energy: -253.161155494167 gnorm: 0.000312490806 xtb: 6.5.1 (b24c23e)
Cu          15.14978696829179       -0.05871264245332        0.01756512230455
C           11.74358259536495       -0.11710214020942        0.04464996481426
C           12.37811888614152       -0.17517029908142        1.27628154339132
C           11.70206547598076       -0.22440161079274        2.54127509945945
C           12.66004550080767       -0.24430362192397        3.50054365774343
C           13.93130233482260       -0.21687550035326        2.82883846334636
N           13.72869022630864       -0.17002766742513        1.47990072670370
C           15.17570919494681       -0.20045068534787        3.46327385998444
C           16.40947512344384       -0.13740220212415        2.81278781232012
C           17.68640510481468       -0.16990998561182        3.46815737794976
C           18.63325218437150       -0.11725276914052        2.49745235327566
N           16.59912059200068       -0.07540622452144        1.45773428541210
C           17.94286575116964       -0.05899362130945        1.24396742825778
C           18.57971640933279       -0.01070999405361       -0.00898132106313
C           17.92174028182571        0.02619145770016       -1.25117536097158
C           18.59095537978296        0.04302879477767       -2.51717659851513
C           17.62801981279592        0.07487472140859       -3.47294909053137
C           16.36230003555249        0.08565207282595       -2.79536218272763
C           15.11700693491056        0.10572370814699       -3.42711190863654
C           15.10097006418013        0.18024555145560       -4.90827247814531
C           14.53331309091252       -0.85071533671970       -5.66187402018443
C           14.51391247065114       -0.77755000699289       -7.04241114749271
C           15.05809534615837        0.32980400655990       -7.69601015554309
C           15.00739884525430        0.36561468609147       -9.17695812783776
O           15.56051155438535        1.46728456395738       -9.70705645272104
O           14.52103507936092       -0.49790398036228       -9.86231664142693
C           15.62634069585553        1.36183442647083       -6.94843325386764
C           15.64836644752858        1.28422581705392       -5.56684772058294
C           13.88284096698592        0.06073271036626       -2.77342843795676
C           12.60010393465414        0.12869694190122       -3.42018652915152
C           11.65878594232584        0.06107871691420       -2.44670399555077
C           12.35658416600426       -0.03775871371961       -1.19663607079466
N           13.70354717231904       -0.02879019329523       -1.42341804723546
N           16.57448049837319        0.04496788269219       -1.44276616103577
C           15.18667974122928       -0.25004051122331        4.94609564303745
C           14.68654838168036       -1.36603329764015        5.62167090979591
C           14.69655389007449       -1.40728585859426        7.00379689731507
C           15.20128623827865       -0.33110093327119        7.73624375314702
C           15.18485473588607       -0.41918957053217        9.21578010324785
O           15.68893734931580        0.66543418606066        9.82406318990124
O           14.76391127887254       -1.36189355860073        9.83690237947158
C           15.70064042533971        0.78620966999626        7.06619984613446
C           15.69504048975919        0.82255280415461        5.68279743851812
H           10.65851582185357       -0.12232578772307        0.05382072206897
H           10.63063830564755       -0.23443356909841        2.66494915788044
H           12.52516334252003       -0.26402937395377        4.56999865995569
H           17.83540764725891       -0.23854166668908        4.53354952607641
H           19.70553089271867       -0.12289287535401        2.61023861706689
H           19.66109942001114        0.02558261920150       -2.64787847177781
H           17.75922801476898        0.07631366565940       -4.54288384916108
H           14.12097339148722       -1.71688195053825       -5.15686063886127
H           14.07831558230452       -1.57591232134132       -7.63321944749029
H           15.48616631253690        1.41354079371588      -10.67367094380048
H           16.04746325103176        2.22436974231023       -7.45133168067954
H           16.07782236552647        2.09261472772298       -4.98578336684794
H           12.44631639603138        0.22878347420469       -4.48254095774273
H           10.58547329761547        0.08299922161215       -2.55089789383127
H           14.30417473460076       -2.20704210564317        5.05445014023076
H           14.31494314807209       -2.27247521418881        7.53480361405774
H           15.64123220014824        0.52909954497064       10.78421479061870
H           16.09069778606366        1.62494812045718        7.63067520386590
H           16.07273530121166        1.69530181584202        5.16194651589794
Cu          33.75487704328336       -0.05545448839859       -0.02601658286228
C           37.16104005707461       -0.11151778465006       -0.05910429938803
C           36.52676162197191       -0.02397585322880       -1.28913087815272
C           37.20311870583281        0.07637975632090       -2.55091838246482
C           36.24534412906351        0.16759575228530       -3.50626251219021
C           34.97391260764300        0.11412396263213       -2.83645878219667
N           35.17622553657841        0.00344572334535       -1.49120393693979
C           33.72952087193541        0.20119927498018       -3.46521867337132
C           32.49560548707856        0.18641772409452       -2.81208603922358
C           31.21871960355315        0.22620326746049       -3.46711960218538
C           30.27180360689523        0.16662758498037       -2.49687945691728
N           32.30586376347534        0.09340239988571       -1.45880584774634
C           30.96211308843803        0.08348989565893       -1.24476390804471
C           30.32497679436264       -0.01004365347152        0.00550649823131
C           30.98261952663436       -0.11340103825480        1.24409445659561
C           30.31319909702490       -0.23764261667907        2.50400009795318
C           31.27602392075272       -0.31614865556847        3.45718194130713
C           32.54190695042298       -0.23254531669862        2.78497653296538
C           33.78708089749028       -0.28950099201150        3.41465445234797
C           33.80290547615552       -0.38631778387374        4.89460843565856
C           34.36340185583057       -1.50095334705421        5.52417584113923
C           34.38226804749883       -1.58765569951929        6.90394866307021
C           33.84487944814101       -0.55953831937242        7.68092929200625
C           33.89440387324558       -0.69526665168250        9.15609645197322
O           33.34903089251402        0.34192128254845        9.80977661298040
O           34.37358898392150       -1.63564322856536        9.73725162394970
C           33.28401992340026        0.55559132168940        7.05742294645189
C           33.26236348540747        0.63795428101514        5.67610482737919
C           35.02128863574217       -0.26283028584454        2.76012913666567
C           36.30396499044512       -0.27511300115970        3.41044467020260
C           37.24544031151122       -0.22986348443853        2.43581941090107
C           36.54782354852479       -0.17889807846064        1.18277269706986
N           35.20081307789047       -0.19378285313268        1.40894429257720
N           32.32989321160620       -0.11924102197143        1.43650161626014
C           33.71874819327058        0.32285346311231       -4.94381382178219
C           34.22424949088953       -0.70540515414021       -5.74334410154009
C           34.21481141797658       -0.58693660975918       -7.12099733554995
C           33.70510845090636        0.56419394796662       -7.72478017379710
C           33.72284980684398        0.64768218188177       -9.20459027999122
O           33.21315333284400        1.79263245246054       -9.68407219214114
O           34.14915744023921       -0.21480680133394       -9.92995927092583
C           33.20000622185509        1.59426007914498       -6.93064512205843
C           33.20523443702680        1.47080017020322       -5.55228298748959
H           38.24611026749145       -0.11602664020231       -0.06866018183804
H           38.27457821966539        0.08253661805876       -2.67453475013087
H           36.38051619585075        0.27361802463844       -4.57059366693840
H           31.06971680777481        0.27860878943693       -4.53342399913279
H           29.19953608252533        0.17193411910799       -2.60978075528950
H           29.24298609008936       -0.26686522134451        2.63201609676856
H           31.14466871135825       -0.43461427812397        4.52052868886392
H           34.77057010684451       -2.30569803360718        4.92259500526239
H           34.81216105005257       -2.45170724551063        7.39870762104480
H           33.42199255916357        0.17630271844500       10.76372026290113
H           32.86833784900483        1.35719189563444        7.65649812684511
H           32.83849209742645        1.51069561431213        5.19213262783853
H           36.45758957990987       -0.30170637082740        4.47719984007938
H           38.31877033555953       -0.22320914018117        2.54189402462361
H           34.61051161895469       -1.60446385469625       -5.27671318911976
H           34.60088249236455       -1.38320238610028       -7.74799052666770
H           33.26212338894931        1.76842383941378      -10.65349067957440
H           32.80605261805650        2.49061935235296       -7.39482812077098
H           32.82340313533863        2.27589820584893       -4.93455595912734
C           19.98537636611445       -0.00756831674250       -0.01854067099902
C           21.20980879939086       -0.00521482259409       -0.01716379338145
C           22.55274837029011       -0.00383191921811       -0.01456217370227
C           23.78328558048768       -0.00273071359427       -0.00561334362434
C           25.12141521269527       -0.00355043885543        0.00171556222686
C           26.35194802043672       -0.00479244220800        0.01039673554701
C           27.69487684896777       -0.00625191431553        0.01395389021434
C           28.91931092259658       -0.00872389597541        0.01452316621208
