278
 energy: -481.583837006362 gnorm: 0.000633992946 xtb: 6.5.1 (b24c23e)
C           44.10608204069109       -0.06486341324326        0.02070337450394
C           44.73024546931916       -1.30507298851480       -0.02360276895873
C           44.11666690951718       -2.58998569796211       -0.06679800442776
C           45.10915361697027       -3.52873705826961       -0.10150061065596
C           46.36017011883757       -2.84734211711166       -0.08051831337341
N           46.08034477783088       -1.51222952708842       -0.03371307285066
C           47.62895945393356       -3.41476166951142       -0.10251342399649
C           48.84947172216430       -2.75514031509579       -0.08168282077193
C           50.12686199483424       -3.44552049717291       -0.10739684110924
C           51.07802791927497       -2.48918015144833       -0.07574365765937
N           49.04495241677583       -1.40907206164928       -0.03556425066842
C           50.37800065065478       -1.21794529979660       -0.03104671195529
C           51.03454436540979        0.03004968473303        0.00991784739200
C           50.38407999519293        1.27802000222262        0.05272172202848
C           50.99192676380773        2.56178854394958        0.09449449675534
C           49.99540799273776        3.49812112556849        0.12789176168337
C           48.74885104446025        2.81227245386660        0.10753994003199
N           49.03627505135399        1.47472099693548        0.06203734242382
C           47.48134252355263        3.38094479910081        0.12974169570652
C           46.25984902935643        2.71920222644761        0.11048328009340
C           44.97592402679813        3.40301389259071        0.13719456930728
C           44.03114152870937        2.44173691416486        0.10694174560749
C           44.73870730582054        1.17201053003240        0.06168569437082
N           46.07720965221385        1.37868394318109        0.06529195457478
H           43.02125581098166       -0.07168509726035        0.02306773321455
H           43.05146759848847       -2.75858363401882       -0.07034402829526
H           44.99856994799703       -4.60091822243618       -0.13843135884672
H           46.77418229537031       -0.77254489949963       -0.00955895293895
H           47.65930291628327       -4.49907041616441       -0.14011212758389
H           50.24575996110266       -4.51705396803909       -0.14457305932819
H           52.15053026876382       -2.60215343148186       -0.08123697750657
H           52.05633011599781        2.73406277491032        0.09810143998183
H           50.10246554191036        4.57056093065434        0.16359476540087
H           48.34497189543661        0.73228625203748        0.03857001957000
H           47.45255845110093        4.46524552159891        0.16642408451626
H           44.85095781784468        4.47403716020917        0.17408768216949
H           42.95740158321927        2.54694595770869        0.11341274049743
C          132.65957841232719        0.06127224352107       -0.02895773932582
C          132.03641783556736        1.29181035287649       -0.19354805429042
C          132.65122137781080        2.56488420416453       -0.36867133258769
C          131.65966605258268        3.49744425288185       -0.48966263457090
C          130.40802265049606        2.82386315280649       -0.39254342575758
N          130.68654266379701        1.49946576183565       -0.21521474780198
C          129.13968978062920        3.38842702575898       -0.46230326358417
C          127.91884122945046        2.73566051937878       -0.36950014071241
C          126.64177551224834        3.42162684321307       -0.45638262348764
C          125.69020219943754        2.47395965970586       -0.32705677441747
N          127.72277751760929        1.40080551270723       -0.19062915068666
C          126.38965919487990        1.21245381916732       -0.16128993327154
C          125.73231339847453       -0.02477717995413        0.00400738634524
C          126.38167815299576       -1.26316188324659        0.16851204504411
C          125.77265344783616       -2.53531158196281        0.34183977369659
C          126.76829306923260       -3.46472063951940        0.46745376864470
C          128.01547529836989       -2.78614024561747        0.37389668348611
N          127.72930096325523       -1.45972763859527        0.19367867722293
C          129.28255227013386       -3.35120942587175        0.44919131710607
C          130.50440410103380       -2.69634964130695        0.35667104851603
C          131.78800666764047       -3.37546072716259        0.44574270797958
C          132.73321443461799       -2.42354619206005        0.31151932850900
C          132.02622870086887       -1.16414682574741        0.14120693271505
N          130.68764755929482       -1.36765503314412        0.17386408917739
H          133.74440425478116        0.06657181239323       -0.03439057834247
H          133.71657717747405        2.73024019034559       -0.39626552303202
H          131.77130656163885        4.56043036512677       -0.63375343778188
H          129.99177968027860        0.76737955126135       -0.11285265161857
H          129.11003078041094        4.46377988575805       -0.60647866396617
H          126.52334417995027        4.48452098234009       -0.59755997602051
H          124.61775173749817        2.58696559925816       -0.33854668432747
H          124.70809091074133       -2.70491922427262        0.36605461161700
H          126.66021091286531       -4.52782666006176        0.61233108018939
H          128.42149622646033       -0.72457916313537        0.09329290025394
H          129.31064669867268       -4.42613557494497        0.59623685380860
H          131.91249690690182       -4.43725521054803        0.59121714933551
H          133.80690627254623       -2.52889905707629        0.32221842474126
C           53.66182090086108        0.05493112088366        0.00455845540699
C           52.43918209127522        0.04311456800363        0.00753678973267
C           55.01107073276341        0.06328191896170       -0.00063722362132
C           56.23391054560242        0.06571568239663       -0.00597376360110
C           67.27282634834758        0.02646477699387       -0.01026705249976
C           66.04959697603552        0.02521595041830       -0.01899148734963
C           68.62187661683586        0.02879104197718       -0.00184445594585
C           69.84511686776268        0.02912523172350        0.00503226108332
C           80.89484584328342       -0.00899305950394       -0.01620171424742
C           79.67149191962831       -0.00887379912614       -0.02468043013093
C           82.24407290299845       -0.00361732742790       -0.00641914849907
C           83.46739735496985       -0.00162179527393        0.00497103499141
C           94.52174689981115        0.00281138628476        0.00470665925915
C           93.29844247688193        0.00118688861933        0.01795092848098
C           95.87101183887387        0.00858262652597        0.00139299149029
C           97.09437307773348        0.00883609190679       -0.00618738386359
C          108.14357679958714       -0.02910587114283        0.00056358551203
C          106.92030951632148       -0.02682158111510       -0.00088949830808
C          109.49266754037393       -0.02766715237387        0.00264088835638
C          110.71592685566011       -0.02979430712907        0.00397897148843
C          121.75568502862284       -0.05499506772463        0.01076251371820
C          120.53287081124918       -0.05537321406436        0.01135243735339
C          123.10497467882568       -0.04851940391219        0.00801471614163
C          124.32763899524022       -0.03634920630158        0.00677066086332
C           57.63761047625804        0.06520229195176       -0.01357024692586
C           58.28357779840134        1.31695990788367       -0.00235048763950
C           57.67757315290835        2.60076490542763        0.01306588572943
C           58.67692221818108        3.53613920079263        0.01584046045412
C           59.92119896195240        2.84800146434298        0.00301372877757
N           59.63189765399700        1.51111016349838       -0.00759702537450
C           61.18961964407726        3.41946724034183        0.00274747031903
C           62.41889414257389        2.77838230504778       -0.00506337837228
C           63.68490558164650        3.49001835833436        0.00059132173421
C           64.65203703585239        2.54905169456945       -0.00537307658577
N           62.63718245470219        1.43485734601043       -0.01587016177745
C           63.97322485491267        1.26638660859225       -0.01601607227173
C           64.64602180084333        0.02602179025975       -0.02590388273151
C           63.99940561553218       -1.22560884993516       -0.04335981396508
C           64.60501132324700       -2.50972181072957       -0.06053213072728
C           63.60547324913836       -3.44458825543271       -0.07620169782734
C           62.36121769107772       -2.75615436044017       -0.06817529453482
N           62.65105796991431       -1.41921556802383       -0.04873839017132
C           61.09311168746623       -3.32766732468837       -0.07616593420960
C           59.86347878730085       -2.68683087857208       -0.06365560143705
C           58.59733674049389       -3.39830460927600       -0.06953236140975
C           57.63040016896819       -2.45734582060704       -0.05048810218584
C           58.30954076083171       -1.17496224050430       -0.03410484453840
N           59.64582326101084       -1.34367558347934       -0.04238431669197
H           56.61352261675376        2.77501110581372        0.02049495616160
H           58.57153644525171        4.60929445946995        0.02604067474324
H           60.31798916822562        0.76346204994806       -0.01844866137045
H           61.20882769573493        4.50495049506571        0.01154984352714
H           63.78624603009695        4.56398497780946        0.00870028138403
H           65.72259241874765        2.67957565460431       -0.00369549460008
H           65.66897803157109       -2.68438482560904       -0.06120939163730
H           63.71037700786920       -4.51771840074566       -0.09159745636079
H           61.96497129648994       -0.67153400349601       -0.03926508884177
H           61.07390785412309       -4.41306263045023       -0.09243404072538
H           58.49563583010257       -4.47213032069428       -0.08573327083493
H           56.55983865821355       -2.58765252341636       -0.04777655034241
C           71.24864866584386        0.02888233331249        0.00706102322313
C           71.89574114888821        1.28049322767190        0.00798621468580
C           71.29190575398896        2.56536793288914        0.01346234034669
C           72.29292070815542        3.49895066342044        0.01128111165501
C           73.53622824698243        2.80876174534880        0.00377197002328
N           73.24443440339009        1.47230240298213        0.00295153836651
C           74.80509280120785        3.37928019818903       -0.00412431094932
C           76.03538602999511        2.73984042771792       -0.01403685592945
C           77.30001251098355        3.45402792588335       -0.02354943103190
C           78.26916683055430        2.51507215148251       -0.02940265289298
N           76.25662786198808        1.39684702146421       -0.01540707340750
C           77.59315511339354        1.23101842476993       -0.02378355720713
C           78.26777514697488       -0.00851623441502       -0.02513592308467
C           77.62036286053009       -1.26003699812641       -0.02376584569738
C           78.22385463265785       -2.54511106757031       -0.02879260557615
C           77.22267405853002       -3.47845260864977       -0.02417669369762
C           75.97947858614111       -2.78805143348953       -0.01594652347047
N           76.27160313734525       -1.45156916487116       -0.01679772044231
C           74.71079986132116       -3.35878778268102       -0.00756652904404
C           73.48032125473321       -2.71958177828505        0.00000936502029
C           72.21561512762892       -3.43365465079339        0.00694571635826
C           71.24656359754574       -2.49456008432682        0.00981061117768
C           71.92283984494698       -1.21069341572384        0.00568276880610
N           73.25937858645405       -1.37665524910731        0.00029720103712
H           70.22819003805228        2.74157568799167        0.01871682108422
H           72.18933386859716        4.57232108406386        0.01425795126480
H           73.92867924773357        0.72284234972070       -0.00204284258981
H           74.82399752061254        4.46485460616464       -0.00308080786953
H           77.39918879021047        4.52822544967596       -0.02533024081060
H           79.33942848372021        2.64778659443409       -0.03740812561719
H           79.28750016904118       -2.72161063926526       -0.03559149271927
H           77.32591431080874       -4.55185516514415       -0.02626215318763
H           75.58749442103559       -0.70196672071635       -0.01170318816031
H           74.69204736127011       -4.44436442381022       -0.00730825274390
H           72.11615897681261       -4.50782318402383        0.00886366684964
H           70.17625180772471       -2.62710020776340        0.01496867138789
C           84.87104503057688        0.00341625117172        0.01607234493014
C           85.51374763964041        1.25733243882465        0.00044831290558
C           84.90569410317627        2.54006305709589       -0.02021497533851
C           85.90361124937722        3.47689971652868       -0.02840434101185
C           87.14930497359326        2.79105740966551       -0.01373752144868
N           86.86185293304466        1.45372982546239        0.00389447664871
C           88.41584999635668        3.36674269314699       -0.01827041753896
C           89.64939965181179        2.73348378448979       -0.00903317435917
C           90.91053189580340        3.45390001825142       -0.01953614855843
C           91.88442357730520        2.51985105606519       -0.01002320452134
N           89.87736105054451        1.39183316426418        0.00811743549300
C           91.21478534079654        1.23266253495099        0.00799103504382
C           91.89477846881346       -0.00371518321779        0.02579655642295
C           91.25201701750974       -1.25740636000064        0.05350856694157
C           91.86012039497733       -2.53995879066122        0.08250712285769
C           90.86223401596375       -3.47655931604150        0.10635694962231
C           89.61650262669485       -2.79079423670434        0.09119756617075
N           89.90391214479541       -1.45370534380462        0.05991115130431
C           88.34994223855963       -3.36636822049446        0.10282793947704
C           87.11640861001291       -2.73325083023704        0.08451294847107
C           85.85526232968937       -3.45364974377025        0.09412031384054
C           84.88141970052172       -2.51986513815705        0.06790151140342
C           85.55108050809127       -1.23278109675214        0.04370436994185
N           86.88848210310414       -1.39181846291811        0.05426597697245
H           83.84141729681554        2.71273261914526       -0.02714449824062
H           85.79650369824179        4.54981904178259       -0.04365986684351
H           87.54825214068855        0.70631723681574        0.01742928313401
H           88.42981334389759        4.45231697367817       -0.03267549656724
H           91.00445574082207        4.52849433094595       -0.03264005316627
H           92.95405115273567        2.65788560639066       -0.01317352173813
H           92.92441943688935       -2.71260839838082        0.08546339755464
H           90.96938130653977       -4.54927487617656        0.13202716748946
H           89.21744386770594       -0.70641636514369        0.04343976442551
H           88.33595699792829       -4.45175261842622        0.12769028838363
H           85.76131481935963       -4.52807124331346        0.11726618400631
H           83.81179902030863       -2.65795344824168        0.06534505923280
C           98.49808153639009        0.00853187518549       -0.01051467171750
C           99.14524002502270        1.25965875356185       -0.04740061063815
C           98.54109800127040        2.54388579707825       -0.08546462938531
C           99.54180310586725        3.47734218340179       -0.11290833569036
C          100.78536537431987        2.78786982482719       -0.09221599360086
N          100.49391090225279        1.45179833107751       -0.05301723767799
C          102.05382947563152        3.35892534764013       -0.10858867844902
C          103.28454968893134        2.72040425704225       -0.08908710605759
C          104.54912307350371        3.43443588102804       -0.11013242240853
C          105.51838429367618        2.49599054460316       -0.08117368854458
N          103.50579010261120        1.37813843355233       -0.04836124414111
C          104.84238308148866        1.21255498013821       -0.04246854903831
C          105.51675665276500       -0.02629291762847       -0.00348053323711
C          104.86992314553416       -1.27750996372373        0.03333636973338
C          105.47432402181235       -2.56154588125329        0.07230996454076
C          104.47373717487169       -3.49522250012694        0.09769208255580
C          103.23012383828792       -2.80593330080706        0.07499230960445
N          103.52131116191681       -1.46988386603404        0.03645010078721
C          101.96151202540324       -3.37686531190928        0.08888679107880
C          100.73096818537101       -2.73818471194888        0.06815213811801
C           99.46649159139636       -3.45245180667358        0.08678976351203
C           98.49709039740601       -2.51413065373113        0.05948850597519
C           99.17282573015160       -1.23041713816265        0.02399621049666
N          100.50942058828264       -1.39580350333815        0.02963123521074
H           97.47733082260324        2.71968393201397       -0.09114312944823
H           99.43798248936675        4.55022059524732       -0.14469373093089
H          101.17858255823332        0.70304077690794       -0.03055648135011
H          102.07213871091045        4.44403779703619       -0.14062040486098
H          104.64834546539466        4.50813621899302       -0.14273532080091
H          106.58868719153728        2.62870445512111       -0.08483727591358
H          106.53812900972211       -2.73713610126070        0.07946136676564
H          104.57781380656219       -4.56808033925036        0.12932760264377
H          102.83661470668855       -0.72119132045218        0.01310909681960
H          101.94308512836807       -4.46199302357547        0.12031063650582
H           99.36755657455430       -4.52625335265599        0.11689801087491
H           97.42683543053043       -2.64712851776224        0.06196082654746
C          112.11953279976305       -0.02897227731104        0.00516771423599
C          112.76424139251175        1.22204761565472       -0.06106079969632
C          112.15683128983673        2.50355688326654       -0.13016761827454
C          113.15507292421880        3.43853264014114       -0.18118936597004
C          114.40030932559105        2.75278140699882       -0.14452068927622
N          114.11232367108741        1.41728392740807       -0.07186165379882
C          115.66751098506360        3.32542978765225       -0.17671121963520
C          116.89829473619176        2.68756923843575       -0.14270340079396
C          118.16314074868896        3.40025714569351       -0.18299108752266
C          119.13184045643146        2.46231432246786       -0.13177732366874
N          117.11844100890858        1.34672760483014       -0.06866479653689
C          118.45506752472060        1.18059315467647       -0.06005836816009
C          119.12912743513860       -0.05647785312982        0.01130031594271
C          118.48509098545617       -1.30719116592434        0.08404562045630
C          119.09293900551900       -2.58801018244863        0.15924896604441
C          118.09489484611787       -3.52335677687741        0.21083833086059
C          116.84960567291841       -2.83821576349499        0.16835630928600
N          117.13702970993950       -1.50302849124725        0.09266344926417
C          115.58205247751704       -3.41092417688964        0.19642127879301
C          114.35164421373312       -2.77315120500352        0.15699902967683
C          113.08693359799169       -3.48628947399976        0.19188635259592
C          112.11805513521527       -2.54859192058619        0.13874809597259
C          112.79448715784498       -1.26639244214850        0.07166217359234
N          114.13085425828791       -1.43200639636584        0.08374199313401
H          111.09263245137170        2.67655723830215       -0.13918676057794
H          113.04866357048429        4.51004827227353       -0.23930233863151
H          114.79923944914117        0.67137553653533       -0.03169247204466
H          115.68487417460936        4.40935607473183       -0.23606280511477
H          118.26280522468723        4.47276173446725       -0.24220719433583
H          120.20217972264921        2.59427431018150       -0.13959788969255
H          120.15724115066962       -2.76042457994544        0.17154076174516
H          118.20183411300856       -4.59461707267268        0.27284151272767
H          116.45004460510889       -0.75745237966668        0.04799542208459
H          115.56464575662655       -4.49479530233007        0.25681657833604
H          112.98763143510790       -4.55894667016397        0.24921965379431
H          111.04773465983014       -2.68101563150027        0.14289367148646
