126
 energy: -239.501800097769 gnorm: 0.000594340485 xtb: 6.5.1 (b24c23e)
C           12.55751718212763       -0.14104939969290       -0.07865923276946
C           13.16514729713059       -1.35168958609414        0.22711685783011
C           12.51108754040035       -2.58405923299569        0.50920981322655
C           13.47056824316853       -3.51641403034772        0.78511790460898
C           14.74200775997372       -2.88123386797958        0.68695479971488
N           14.50749277125271       -1.58248751821919        0.33761904184899
C           16.00460911019268       -3.45643911438077        0.87301267644729
C           16.03015109564954       -4.87771017815679        1.29007677262282
C           16.65089830517083       -5.84213519627361        0.49029728883094
C           16.67285047574719       -7.16928970267158        0.87870972755273
C           16.07300480721743       -7.53547395595816        2.08036100297394
N           16.09387569449271       -8.92735755287949        2.49385639721641
O           16.65099696984302       -9.71498123114245        1.77297089012140
O           15.54993777170296       -9.20891399925862        3.53096175948855
C           15.45192708228400       -6.59075911489631        2.89241938402031
C           15.43073573296197       -5.26736762342098        2.49200845012746
C           17.22319243875578       -2.79340049821087        0.70345877053188
C           18.52012006946261       -3.39811855994142        0.95012421678828
C           19.44066297316639       -2.44979336027071        0.68019350660550
N           17.37703301378678       -1.49837426253862        0.31488064586312
C           18.70467131975964       -1.26451652841729        0.28404937130705
C           19.34163949599884       -0.05876629005769       -0.07179509660701
C           18.70802771981527        1.15270181204303       -0.40768413155345
C           19.35533396791191        2.36390968581030       -0.76880240979698
C           18.39120532431003        3.30776653851183       -0.99067443686541
C           17.12435836241657        2.70125115023075       -0.76499370161939
N           17.36717735880120        1.39711069660927       -0.42636290618792
C           15.86183224671921        3.29248941618899       -0.89290013256491
C           15.83255846089074        4.73549021701198       -1.22232198973593
C           15.19725364468678        5.18672370542244       -2.38369663722887
C           15.16333931742371        6.53519881961544       -2.68821980856533
C           15.76599052906650        7.44293002119695       -1.82175522999559
N           15.72830563411675        8.86055873201398       -2.13336273662690
O           15.17169707362057        9.19396758192166       -3.14800058577197
O           16.25517882606383        9.61616742996939       -1.35736987047472
C           16.40391436423189        7.01503821951388       -0.66085048187053
C           16.43705168361094        5.66397939666249       -0.36855560365917
C           14.64294565040770        2.62556839911413       -0.72505401151483
C           13.33790124918850        3.26311433879470       -0.81653379333287
C           12.42483745935838        2.29633691016662       -0.59752791273015
C           13.17052551607842        1.07363379124682       -0.35460467572710
N           14.50314994436805        1.31166410086788       -0.43181879474785
H           11.47236626400035       -0.15222062114246       -0.08910958361969
H           11.44241742412996       -2.72623164813963        0.49559864622763
H           13.31765190930883       -4.55598933505639        1.02535557655980
H           15.23407825811643       -0.89120470958612        0.18457048725327
H           17.10283828866438       -5.54677900060174       -0.44933374901887
H           17.14560798221811       -7.92468248334613        0.26260768017221
H           14.99681016492216       -6.90029658693383        3.82556578212064
H           14.96237671504193       -4.52038497151918        3.12232221679715
H           18.68341250201980       -4.40590420251553        1.29592751374794
H           20.51470065951569       -2.51693924134807        0.74626176997791
H           20.42319905589839        2.48719770268743       -0.84967720023449
H           18.54181874125800        4.33025275935562       -1.29620724694003
H           16.64297282550279        0.71613267532165       -0.22259311213304
H           14.74337161853035        4.46950539189863       -3.05743435285463
H           14.67789478318990        6.89338208159003       -3.58805169289211
H           16.86195678565164        7.74156639897079       -0.00051970938109
H           16.91725826089568        5.32049232941969        0.54033697482864
H           13.16768969917132        4.31014567323664       -1.00841443435189
H           11.34923802776430        2.37431969138524       -0.58228405312689
C           32.73026658325244        0.08502887190371       -0.12992452243760
C           32.12249768916946        1.28074750770106       -0.48959187932402
C           32.77640054081840        2.48328434301762       -0.87994681912728
C           31.81666983640599        3.42408710918312       -1.12461656825519
C           30.54522991778930        2.82788246040591       -0.88462284093881
N           30.78004951790563        1.53459819995867       -0.51571331890011
C           29.28245850332843        3.41588755841447       -1.02325746920996
C           29.25675682540616        4.84888453391296       -1.39833304911460
C           28.64065987754407        5.26215308282297       -2.58351788837845
C           28.61958881856987        6.59942809067634       -2.93552824964023
C           29.21537871613256        7.53331003308072       -2.09246621237239
N           29.19601150207911        8.93888553546259       -2.45678976038811
O           28.64490144566805        9.24121001669642       -3.48400525698267
O           29.73338586931548        9.71577380781453       -1.70970595334009
C           29.83128092480491        7.14329875903765       -0.90665732948077
C           29.85192295538190        5.80300217098415       -0.56700611835136
C           28.06409503913380        2.75916326538539       -0.82965912653445
C           26.76680332091552        3.40323057563525       -0.93285957652406
C           25.84654856067423        2.45046835836416       -0.67785337636372
N           27.91071588970377        1.44878075650082       -0.49625367697906
C           26.58306589152600        1.23108332915354       -0.40553711813190
C           25.94698119797115        0.01344225844348       -0.09114136380066
C           26.58104608442920       -1.19803916466571        0.24354345247114
C           25.93379809972532       -2.42347776392548        0.55320985690303
C           26.89788220179293       -3.34728775370220        0.84763353927198
C           28.16462836104592       -2.71020590572164        0.73269288772942
N           27.92178689149026       -1.41685046885764        0.35506330178157
C           29.42718007031374       -3.28333953059203        0.92605440360791
C           29.45656086303496       -4.69193894804197        1.38047609165821
C           30.09223006122321       -5.67319200511854        0.61298746644928
C           30.12542928236081       -6.98807867728139        1.03986995283569
C           29.52184626521824       -7.32583268387876        2.24796603619589
N           29.55860848812660       -8.70385783301291        2.70388437552032
O           30.11309599434158       -9.50935391965647        2.00090323290904
O           29.03287924240612       -8.95664918601545        3.75764528054438
C           28.88382803750607       -6.36482765952814        3.02717117953351
C           28.85128412858411       -5.05399237320807        2.58838267645888
C           30.64586689980456       -2.62389759105872        0.72923079444505
C           31.95116133799959       -3.21800479307976        0.97666671735046
C           32.86380523651271       -2.27460367966949        0.67104565985611
C           32.11764556876534       -1.09996849036072        0.25445335438838
N           30.78510502718090       -1.34478400974091        0.30943315062556
H           33.81544474981478        0.08995861291500       -0.14318754614545
H           33.84513120864076        2.59904199593570       -0.96277224102872
H           31.96942008184455        4.43928997402628       -1.45304160734975
H           30.05353213993507        0.86232459250710       -0.29333920165939
H           28.19179790004084        4.52408714630043       -3.23789016465962
H           28.15076760563284        6.92857108346911       -3.85508846410779
H           30.28309148145618        7.89011431906766       -0.26495989057906
H           30.31663839308884        5.48839624354433        0.36017962781983
H           26.60311914318106        4.44495679376003       -1.15614400754737
H           24.77237126056759        2.54114737230588       -0.65893429946360
H           24.86601079070369       -2.57114782495178        0.54479546399660
H           26.74739714545993       -4.38201689286818        1.10870213572816
H           28.64608510067856       -0.72744533989461        0.18241730857248
H           30.54681954564504       -5.40087488692613       -0.33227224281379
H           30.61096626648576       -7.75578433987167        0.44952649153897
H           28.42511857257163       -6.65213826667936        3.96564581320429
H           28.37084541765764       -4.29436751262698        3.19400828580686
H           32.12192780003370       -4.21597559693478        1.34673801439822
H           33.93943077818786       -2.33341669702798        0.72397522558246
C           21.96960235755807       -0.03107127854128       -0.09222930513538
C           20.74768872827022       -0.04719469898986       -0.08353521732176
C           23.31886080530207       -0.01820875289197       -0.09680201304138
C           24.54081271274196       -0.00372529586306       -0.09526571276504
