484
 energy: -900.857691899170 gnorm: 0.000341609251 xtb: 6.5.1 (b24c23e)
C           77.81587977651056       -0.03324547876717       -0.45805857137281
C           78.42723709583402        1.17762142240778       -0.75627416846901
C           77.77717711231929        2.39973779978143       -1.08715221929445
C           78.73988220617903        3.34947859276684       -1.28282656302015
C           80.00988639329657        2.73572477341552       -1.08564325993016
N           79.77028984068131        1.42909560429186       -0.76862321977990
C           81.27204693162265        3.33596519903072       -1.15790012703746
C           81.30636912602949        4.77069536038469       -1.53572270254143
C           81.82982061958103        5.71963037864170       -0.66196908598498
C           81.86287737900113        7.06712765263766       -1.01837546559380
C           82.43109100638760        8.03114105423712       -0.04246835099009
O           82.42401525236318        9.29986998069971       -0.47666642867202
O           82.86321591764111        7.72811418518311        1.03997562909958
C           81.37180783226395        7.47481052773231       -2.25861768531611
C           80.85003099281131        6.53202996024897       -3.13030488773073
C           80.81473478432102        5.19123579888729       -2.77376674486312
C           82.48404491068052        2.69097654881094       -0.90296416260556
C           83.78415809201759        3.32387815632560       -1.03777094449349
C           84.70034439525129        2.38411360013625       -0.72732286492176
N           82.63376287383839        1.38980738730442       -0.53032701303685
C           83.95950230498366        1.17757318044161       -0.41208664303370
C           84.59284924077626       -0.03098345526048       -0.05710903055395
C           83.95609907503621       -1.25356933745540        0.22939529763676
C           84.60040579783006       -2.47846586436785        0.54761879343047
C           83.63389215345673       -3.42659023872089        0.73765661229592
C           82.36766717537550       -2.80574197633859        0.54979220776065
N           82.61505691551761       -1.49459403583194        0.23946352946236
C           81.10644824899515       -3.40547419369753        0.62766434038871
C           81.07274491182541       -4.84068004648120        1.00094258303187
C           80.52770686399909       -5.78642479911348        0.12925485860899
C           80.49860654806861       -7.13084386096401        0.47267075035232
C           81.01075680543906       -7.54841473001598        1.68971963549970
C           81.55707869585333       -6.61317805727952        2.56994428328318
C           82.09591100788415       -7.09969542607855        3.86498169990895
O           82.60958430416099       -6.12714662712706        4.63208650562845
O           82.08658491304334       -8.25222014326105        4.21429128906014
C           81.58799195543845       -5.26366329043779        2.22456810193333
C           79.89267014412150       -2.75451422741848        0.38282340042930
C           78.58569634262300       -3.37562688407580        0.53316436096916
C           77.67566977189618       -2.42943599599733        0.22656291679648
C           78.42487317624597       -1.22941318035674       -0.10238605838035
N           79.75614504536458       -1.46113514761537        0.00675964191641
H           76.73129286725091       -0.03210241196894       -0.49894909263500
H           76.70830031817161        2.52464441467754       -1.15537888838702
H           78.58896525120221        4.38790322341492       -1.52962739316972
H           80.49391688486229        0.75016246815602       -0.55713203086397
H           82.20458062517922        5.42267713687791        0.31143537502502
H           82.81009088170519        9.86363218581482        0.21327255708988
H           81.40050173185529        8.52184125884363       -2.53482026599198
H           80.46953028652877        6.84120215720001       -4.09726930934045
H           80.41864560896357        4.45764294265390       -3.46715430664876
H           83.95214917641675        4.34363924686381       -1.34373165208566
H           85.77490895312852        2.47085662712573       -0.71289220841902
H           85.66844368626994       -2.60940285711724        0.61299557978219
H           83.78267646474286       -4.46720209349063        0.97533715572413
H           81.89389679514096       -0.80911583980731        0.04019652641138
H           80.13976795313478       -5.46378761372701       -0.83042264554365
H           80.07621337251408       -7.85353445977754       -0.21612285871869
H           80.99621830649315       -8.59463331366458        1.97354019662054
H           82.93719324893020       -6.52447197154647        5.45531811510131
H           81.99817799024191       -4.53819971957257        2.91715250735794
H           78.41246377933922       -4.39200759332695        0.84839011627036
H           76.59947699768207       -2.50320488945377        0.22308108582509
C          195.96597018034589       -0.13757679080632       -0.44440490820851
C          195.35612441821317       -1.36708527363829       -0.23153132694467
C          196.00766082456141       -2.61837357734817       -0.04343840798539
C          195.04599717008688       -3.56814155843902        0.15730159586013
C          193.77520987194356       -2.92864205158442        0.08974803113997
N          194.01330590534610       -1.60419547013836       -0.14344563802493
C          192.51340248350340       -3.50935425705801        0.26043865348558
C          192.48011906911171       -4.97510041910947        0.49015292713067
C          191.95256796851299       -5.49336191854184        1.66960358489853
C          191.92017457862022       -6.87045390823320        1.88488422272582
C          191.34754833901187       -7.36131130375154        3.16389323567495
O          191.35335549178154       -8.69759936355920        3.27548699349436
O          190.91328204749709       -6.64890117977885        4.03227697755751
C          192.41600274151378       -7.74176829392001        0.91508380984006
C          192.94187745067788       -7.22833914552567       -0.25998473576114
C          192.97654723022964       -5.85727733765073       -0.47243377826954
C          191.30049905288789       -2.81796079200062        0.23204032423242
C          190.00089288166274       -3.45432252430587        0.35482359019329
C          189.08356565011331       -2.46992424715843        0.26324209611664
N          191.14941977895850       -1.47607262167530        0.05645807858357
C          189.82327607467460       -1.23618531833390        0.07701037093555
C          189.18885866752029        0.01412943143490       -0.07162593223110
C          189.82466236052773        1.25133628666053       -0.28907153594981
C          189.17928913698137        2.50192407550881       -0.47959472119811
C          190.14473171314796        3.44787024872881       -0.68521878390838
C          191.41141631617063        2.80368470806738       -0.61694852603872
N          191.16533503882084        1.47705092410836       -0.38008806446284
C          192.67174701358695        3.38484714818100       -0.79075586731869
C          192.70424274490449        4.84951406698073       -1.02331574269807
C          193.24284294152065        5.36668557273333       -2.20391673067361
C          193.27086571466697        6.73604092562848       -2.42820105651776
C          192.76406961353791        7.60635618504550       -1.47763810636452
C          192.22424333683247        7.10224752535700       -0.29340596823059
C          191.69114065785644        8.06697507965437        0.70113799302859
O          191.18252034177846        7.48333801044181        1.79605927018524
O          191.70069911056757        9.26299018262540        0.55981896511003
C          192.19437770530536        5.72739925605399       -0.06889070702660
C          193.88595644265868        2.69076319168193       -0.76012628236346
C          195.19211444120876        3.32101394733812       -0.87545631233273
C          196.10319769793480        2.33198142847066       -0.77953955909862
C          195.35547238492578        1.10015597536863       -0.59774030306812
N          194.02401241170807        1.35514115180325       -0.58713123913222
H          197.05055406371460       -0.15379153259693       -0.48212217462563
H          197.07674811315727       -2.75870336082164       -0.05447565270457
H          195.19813556456188       -4.61811844096185        0.34813504747296
H          193.28880763015405       -0.89842452198846       -0.22288869027191
H          191.57391310027441       -4.83052621390124        2.43994027955162
H          190.96390958067096       -8.93679255336592        4.13224627409803
H          192.38781466839592       -8.81153741948031        1.08297240401738
H          193.32609125081743       -7.89974608026699       -1.01958063717037
H          193.37580166946080       -5.46392298494753       -1.40071150568256
H          189.83410146048709       -4.51202669952762        0.47806356110174
H          188.00895788847288       -2.54544015956454        0.30702402960370
H          188.11125099680123        2.64773628434937       -0.46730378194944
H          189.99485630193956        4.49735736565756       -0.87915477731138
H          191.88699123927958        0.76884488009524       -0.29450152122614
H          193.62662962782434        4.68647008348876       -2.95597544325817
H          193.68818988948433        7.12210723985858       -3.35120481713687
H          192.77782736550981        8.67863344837814       -1.63692532612282
H          190.85809019614851        8.17724937390777        2.39280682885118
H          191.78926277850027        5.34031921655445        0.85861375610804
H          195.36420104886557        4.37864678726243       -0.99469863074792
H          197.17924575776999        2.39901394749166       -0.81539862878482
C           85.99645278486294       -0.03381014638268        0.00512889516634
C           87.22007790212741       -0.03844502356323        0.05748944359180
C           88.56110800415141       -0.04016291411008        0.10568628351516
C           89.79144922808069       -0.04088695323174        0.14290949982873
C           91.12814526487320       -0.03917108717763        0.17338597707263
C           92.35897675248248       -0.03759797809636        0.19246293323140
C           93.70055153548091       -0.03472160852668        0.20152618194861
C           94.92555710627722       -0.03272118715804        0.20096365284492
C          104.57540616483843        0.03960355939819       -0.14554747136244
C          105.79947605071716        0.04637319785315       -0.19432773620937
C          107.13990823177902        0.05359360019322       -0.23370707657588
C          108.37079105608193        0.05836518815800       -0.25724777217698
C          109.70711339896138        0.06057132494518       -0.26568898911526
C          110.93822493957974        0.05830937211648       -0.25844736447738
C          112.27896941679083        0.05495410469230       -0.23113680740110
C          113.50338714075849        0.04529776526285       -0.19203096578621
C          123.13630206894489       -0.04750753028983        0.38362988210439
C          124.36066155849157       -0.05158880402517        0.42369094063956
C          125.70124121413434       -0.05008381550284        0.45234859544394
C          126.93226910377697       -0.04460432695485        0.46188194082404
C          128.26845275553006       -0.03659941847661        0.45725329980590
C          129.49933111677757       -0.02664099523556        0.43842511131724
C          130.83980793556509       -0.01648278807135        0.40739243199672
C          132.06415705681187       -0.00842834706727        0.36788446555618
C          141.70929533315240       -0.00111170911676        0.33722506105867
C          142.93370603264887       -0.01176371670228        0.37440014590530
C          144.27418630828197       -0.01933613943441        0.40683059982645
C          145.50501439078670       -0.02526750120932        0.42999117438255
C          146.84118114894540       -0.02964584730675        0.44092651840582
C          148.07225734771922       -0.03218831016204        0.43901284628491
C          149.41299022533866       -0.03221942352084        0.41922612321297
C          150.63759641226144       -0.03172380475220        0.38700024572070
C          160.27424760258464        0.03138391490115       -0.14598255905562
C          161.49856814530153        0.03098789919951       -0.18881922577403
C          162.83921436853453        0.03289846379981       -0.22060842174364
C          164.07026012256296        0.03368646500520       -0.23471014419164
C          165.40661962030711        0.03434467678884       -0.23438843583073
C          166.63765652821644        0.03493657609430       -0.21960242519633
C          167.97836162254177        0.03783409708056       -0.18977482807935
C          169.20282556621314        0.03773860325554       -0.15088689675913
C          178.85617907444760        0.08992938373304        0.16394213339332
C          180.08116421372961        0.09370696096427        0.16470915939349
C          181.42271369253672        0.09708064904051        0.15735852146229
C          182.65349022107483        0.09600819296140        0.13876151152516
C          183.99018243810107        0.08921542337277        0.11038589503711
C          185.22054576950140        0.07763224029513        0.07624077533043
C          186.56160581550674        0.06132854726815        0.03247195858578
C          187.78526801202702        0.03983274468690       -0.01474158369324
C           96.32921779273606       -0.02538206055151        0.18266542938067
C           96.95055896173589        1.22908069110766        0.33788583753086
C           96.29525643995467        2.47651053468274        0.50371714562386
C           97.25561260101323        3.44018329202404        0.64938506282438
C           98.52586021382901        2.80604728893219        0.58231024100467
N           98.29067252776100        1.47213192786171        0.38360648316826
C           99.78392012614326        3.41343891562954        0.67867744402284
C           99.79355384865427        4.87382760628469        0.94440797612712
C          100.36240502049623        5.75591132396631        0.03006640717280
C          100.37287038135560        7.12699720648735        0.28297109702889
C          100.99219627463778        8.01678047030812       -0.73173205111376
O          100.95669799151348        9.31511952839096       -0.39853784364344
O          101.48572220078975        7.63377672645510       -1.76122467599752
C           99.81366695343445        7.62553909019095        1.45946929217436
C           99.24674130609253        6.74926340569436        2.37146558057757
C           99.23361212723967        5.38495658785163        2.11771121355296
C          101.01051455926493        2.76251618300434        0.54383408736539
C          102.29790358043449        3.41755782821546        0.69399642800764
C          103.23495147033981        2.47235945581557        0.47568892989246
N          101.18735754522940        1.44126626962918        0.26468107746329
C          102.51868738506826        1.24097349000422        0.20560799444416
C          103.17365067871656        0.02616240174578       -0.08164559457620
C          102.54987500633497       -1.21710944164058       -0.30333014274804
C          103.19991387558174       -2.43984234758548       -0.61247854254430
C          102.24123300761512       -3.40951137439403       -0.72335268161746
C          100.97783229199213       -2.80644825974722       -0.47647310997681
N          101.21439917239493       -1.47884597641958       -0.23919779333825
C           99.72362747731574       -3.42857790680573       -0.48476157413426
C           99.71653509423885       -4.89353811222862       -0.72380147344314
C           99.05501138705186       -5.42779994063488       -1.83185479782552
C           99.05098820882669       -6.79676967611260       -2.06039850955078
C           99.70499322425509       -7.64909092654630       -1.18652122295933
C          100.36931509947840       -7.12744981266544       -0.07548600952781
C          101.05976740923924       -8.07309777793981        0.83736699205751
O          101.67826346099487       -7.47270426256677        1.86466272508204
O          101.07940916429078       -9.26800336934190        0.68893250820031
C          100.37488527444073       -5.75297772646090        0.15320967023598
C           98.49952306209607       -2.78673789227985       -0.29115779949878
C           97.22064120557127       -3.47317088029420       -0.25399310015297
C           96.28140163407235       -2.52146903260805       -0.07441283637679
C           96.98914203260200       -1.25931217311902        0.01121610724620
N           98.31822649286396       -1.44962640729162       -0.10846846048265
H           95.22572189322071        2.61119856730307        0.50658967785310
H           97.09948464818977        4.49847056433417        0.78058016400811
H           99.01605204846513        0.77086494324483        0.27709371260053
H          100.79078544152206        5.38743693484152       -0.89559248206590
H          101.37874871190925        9.82683519187268       -1.10772434227832
H           99.82498867910213        8.69084785905837        1.65535401415776
H           98.81298699252625        7.12932313492668        3.28947692332357
H           98.80081933296820        4.70419383149273        2.84231158987576
H          102.44344382073386        4.45583994944899        0.94397552825553
H          104.30841149383996        2.57047599184679        0.49750575789928
H          104.26463463519843       -2.55344255106418       -0.73693476924580
H          102.39372809566554       -4.44885020457021       -0.96408364989817
H          100.49269963604223       -0.79197270589461       -0.04790693287516
H           98.55449559322196       -4.76098488257504       -2.52491262592411
H           98.53635199653574       -7.19650337451813       -2.92667196751446
H           99.71188539047260       -8.72076171150509       -1.35028989649582
H          102.10128354885592       -8.15511012318870        2.41084684738481
H          100.87868349014279       -5.35240958824688        1.02497618962348
H           97.08259681142275       -4.53870388486230       -0.34059002201260
H           95.21243529250395       -2.63699868914618        0.00606515569546
C          114.90502433397488        0.03472767929208       -0.12490479386492
C          115.52939090108038        1.27962186638659        0.08686206816736
C          114.88126007917964        2.53784594861768        0.18491681276620
C          115.83945264255763        3.48830188306951        0.41029966478882
C          117.09986963927788        2.83407265399052        0.46746552731291
N          116.86310426922257        1.50261734198040        0.25369667640088
C          118.35256463238098        3.41925460271537        0.68904189627391
C          118.36550638485807        4.88246191656122        0.93734513671316
C          119.05488191973851        5.73728023982895        0.08173365748501
C          119.06895097394899        7.11166206805974        0.31541487924056
C          119.82147554438569        7.97081815756453       -0.63359816483635
O          119.77795384770637        9.27502129766136       -0.32531466293400
O          120.42156766165495        7.55991847253407       -1.59334102458895
C          118.39128110445830        7.64133215651625        1.41342204086121
C          117.70471505213014        6.79235622637236        2.26715838276732
C          117.68908464151365        5.42457343554862        2.03278066206915
C          119.57242789002787        2.74200357679196        0.69459057914139
C          120.84838666389787        3.37094825306165        0.98628940309713
C          121.78345708509519        2.40484759225750        0.87933679664101
N          119.75097801467091        1.41540720407211        0.44323122405304
C          121.07606351526934        1.18735474415813        0.53358166933541
C          121.73480698707156       -0.03978408040192        0.31541199794499
C          121.11688201468209       -1.27052934907587        0.02006462959934
C          121.77530948538119       -2.50329310523977       -0.22523571788875
C          120.81805901695915       -3.45201945035011       -0.46029401130668
C          119.54631239853157       -2.82563239823254       -0.35632259238234
N          119.77836226540718       -1.50624082240224       -0.07325660324056
C          118.28993436162682       -3.41980839692070       -0.52421814437242
C          118.28019845010088       -4.87899387655975       -0.79705974635829
C          117.74883889491690       -5.37125718418248       -1.99125443800204
C          117.74169428147594       -6.73425510000310       -2.25284648607442
C          118.26128992310036       -7.62226541689408       -1.32585369155090
C          118.79345416358940       -7.14269454211873       -0.12810364409786
C          119.33921681484152       -8.12630625003822        0.84087338136675
O          119.83429580697967       -7.56554165687832        1.95389101274975
O          119.34967235506659       -9.31771432724049        0.66585395796851
C          118.80371884883233       -5.77402714163217        0.13332870718956
C          117.06461406148814       -2.75571768997530       -0.45498315632159
C          115.77700960874043       -3.41718881807625       -0.56677642414761
C          114.84094798491829       -2.45247091449692       -0.45250604728479
C          115.55825998838657       -1.20666102434059       -0.26497678240830
N          116.88908518931123       -1.41957766776014       -0.25948580673455
H          113.81839957956518        2.68893265421742        0.08717934043657
H          115.68843054847541        4.54997851626882        0.51780620228998
H          117.58430018374297        0.78978547402455        0.22058895893867
H          119.57674074730356        5.34457825677512       -0.78405826122694
H          120.29075369260210        9.76552432531975       -0.98818266950068
H          118.40487510225587        8.70923018282929        1.59450626930563
H          117.17868199727273        7.19659853283370        3.12461127702114
H          117.16246258619481        4.76533453577326        2.71384962644227
H          120.98694623927031        4.40733094382117        1.24784248570658
H          122.84934004826451        2.48047909938263        1.02275338694084
H          122.84491372060904       -2.63734772741768       -0.22489688381246
H          120.97767059492014       -4.49191967500954       -0.69390681225656
H          119.05199772914544       -0.80687906367146        0.03890173860508
H          117.35299623762600       -4.67639855686304       -2.72336043823260
H          117.32984880281712       -7.10134266127823       -3.18595171477117
H          118.26305798417923       -8.68996331120088       -1.51391659144756
H          120.16722394613264       -8.27099069192745        2.53220191558990
H          119.20435836140712       -5.40585638860721        1.07043333236729
H          115.63060382536429       -4.47705791199698       -0.69780182478860
H          113.76749894012463       -2.54888022059815       -0.48245904568798
C          133.46658787184217        0.00179657021702        0.32395206430876
C          134.08734822148475        1.25682789345847        0.47823582606801
C          133.43081899414375        2.50711914687323        0.61498616556077
C          134.39027622637278        3.47541225047775        0.73374648200307
C          135.66088406171406        2.84018215505825        0.68862513484791
N          135.42679291306931        1.50143673674359        0.52239066416185
C          136.91964749446052        3.44465055095892        0.78922490163267
C          136.93605008650718        4.91635358452198        0.98178407145096
C          137.53725408082897        5.74057203096509        0.03455118525293
C          137.55075900333620        7.12387414697676        0.20722187847289
C          138.20219718536083        7.94925582369977       -0.84137632097240
O          138.16247496478749        9.26542399962428       -0.58853165488317
O          138.72262422972000        7.50335067639033       -1.83150272773160
C          136.96355228537709        7.69306750958180        1.33710811973615
C          136.36761996568509        6.87430579781822        2.28341269407617
C          136.35071194162418        5.49750474685877        2.10895678078793
C          138.14412589887095        2.77859746113141        0.72690692041333
C          139.42869145334018        3.42559144042023        0.92646096967818
C          140.36445244356824        2.46192848069803        0.80434046940301
N          138.32008609414373        1.44705853884342        0.50239108315155
C          139.65001850633257        1.23045485220476        0.52948324777266
C          140.30665337238369        0.00465021617245        0.29884287854513
C          139.68543292728830       -1.22640286761970        0.01061565893646
C          140.34160031990737       -2.44468981141790       -0.30316026531675
C          139.38213091866001       -3.39446073179009       -0.52489075402014
C          138.11175481547420       -2.78553122709023       -0.33576933931525
N          138.34615106699124       -1.47270294545876       -0.02494066729666
C          136.85304614052953       -3.38900969823941       -0.44213702244874
C          136.83562079468803       -4.83463880568590       -0.77811500409128
C          136.21293032183996       -5.27609328631610       -1.94806277871196
C          136.19680584648600       -6.62468394865273       -2.27507283449639
C          136.79919934581474       -7.54931461313369       -1.43837773674526
C          137.42230497720229       -7.12103714634175       -0.26532688512118
C          138.05587229715721       -8.14299272106580        0.60551277542428
O          138.63795973368181       -7.63009818140515        1.69935494652204
O          138.06232534247806       -9.32434706140059        0.37189866601192
C          137.44029820196147       -5.76667380159051        0.06229827628647
C          135.62922841731600       -2.74509595540843       -0.25394446018323
C          134.34620183995247       -3.42442416978463       -0.27279826967514
C          133.41055557006308       -2.47968938359293       -0.04475177141533
C          134.12368117597924       -1.22722885586779        0.11172450993738
N          135.45280924033528       -1.41823182666246       -0.00438925260656
H          132.36120036283717        2.64116048748919        0.61185537401875
H          134.23259097663612        4.53666833122343        0.83561765028191
H          136.15351024264638        0.79889549462599        0.43451804516690
H          137.98863571583283        5.31587137776347       -0.85542510839175
H          138.60569694717145        9.73224358701579       -1.31558458132907
H          136.97637014143936        8.76796407227389        1.47063327179449
H          135.91318244903809        7.30960032319325        3.16622378969797
H          135.89501846983012        4.86277549673445        2.86075508728141
H          139.57159350636391        4.47121385989756        1.14564810749260
H          141.43581591656547        2.54898615037538        0.88802012171449
H          141.41101222999760       -2.56778960984160       -0.35987768088359
H          139.53972012130654       -4.42405395060843       -0.80145184653564
H          137.61986233466172       -0.78494347445007        0.14491805934124
H          135.75200846260140       -4.55188836310558       -2.61034640162548
H          135.71323718780064       -6.95164197885136       -3.18848176790351
H          136.79626715489971       -8.60648782753747       -1.67862527986735
H          139.02488335214665       -8.35823590769215        2.21223590984059
H          137.91045308852395       -5.43974315455594        0.98221973069456
H          134.20405595881050       -4.48253403678898       -0.42159087716892
H          132.34026858929181       -2.59344752919528        0.01864968956379
C          152.03946974635790       -0.02357239060412        0.32776678538574
C          152.66392145049119        1.22910702993444        0.48469952159466
C          152.01175674686368        2.47338921706904        0.68365342082390
C          152.97423297989258        3.43868286414302        0.80141889868505
C          154.24277474432247        2.80823742235468        0.68545053317370
N          154.00400435588404        1.47476857845618        0.48724115743290
C          155.50221550749345        3.41708552672000        0.74046445087954
C          155.51773526008554        4.87936170439309        0.99631048715229
C          156.04502752226253        5.75545514598951        0.05191042587694
C          156.05472782012873        7.12919281821729        0.28989654741854
C          156.62399125915761        8.01283213118291       -0.75902242877557
O          156.58629224021919        9.31480539532672       -0.44074271713316
O          157.08084407514582        7.62217332216493       -1.80242335502950
C          155.53866465772353        7.63603733200853        1.48243755757100
C          155.01549519950112        6.76536258905766        2.42542795738885
C          155.00145035070710        5.39844488490632        2.18589659489245
C          156.72467314336268        2.76577694782931        0.57391360239421
C          158.01511251460462        3.42062521317240        0.69380037738785
C          158.94690846017289        2.47215712033149        0.46714453810055
N          156.89443911303573        1.44308937004721        0.29751485005338
C          158.22433189268119        1.24026886606395        0.21642238628534
C          158.87253052140082        0.02392432421719       -0.07944445681596
C          158.24302157477143       -1.21452466692195       -0.31275374242214
C          158.88658130399443       -2.43220291542035       -0.65364990996909
C          157.92385421356440       -3.39615708204769       -0.77924670352921
C          156.66480633379186       -2.79537470980261       -0.50677381007453
N          156.90745119594524       -1.47406431955361       -0.24196881597286
C          155.40845414917058       -3.41344909079814       -0.51317880801703
C          155.38920584076200       -4.87016840930071       -0.79733011820747
C          154.70279536550117       -5.36400285997917       -1.90912621719640
C          154.68414262587783       -6.72473419521986       -2.18152410362178
C          155.34820398804143       -7.60919324333986       -1.34809553048051
C          156.03714455001287       -7.12816560836499       -0.23374994054687
C          156.73706650656430       -8.10767769714713        0.63507297129758
O          157.38012716460807       -7.54512324569069        1.66870648940999
O          156.74390602643462       -9.29737269798279        0.44851836880965
C          156.05730557556859       -5.76182697838186        0.03905607368542
C          154.19082743477330       -2.77408371657984       -0.27672433523663
C          152.91163117835879       -3.45911811845238       -0.22614220266584
C          151.97996490479161       -2.51157176632017        0.00654475114545
C          152.69279410221506       -1.25333843346959        0.10762054628015
N          154.01749194710808       -1.44209051491699       -0.05249594663308
H          150.94265847770504        2.60522183922293        0.72490116228019
H          152.82018370463749        4.49559038054140        0.94549814785589
H          154.72717646092266        0.77665553692739        0.34943992566304
H          156.43987077449322        5.37997829092327       -0.88577136009498
H          156.97352162714310        9.82217778405658       -1.17257787339219
H          155.54899252084681        8.70347072960921        1.66647918882862
H          154.61587928946199        7.15199466584689        3.35611253433796
H          154.60169747143044        4.72231487277081        2.93344713992173
H          158.16561594578107        4.46095913515132        0.93217030830415
H          160.02068955204675        2.56906597881624        0.46844999913442
H          159.94978028662936       -2.54605719030061       -0.79023221615235
H          158.07105805059481       -4.43006679619195       -1.04528156925780
H          156.18911438399357       -0.78999882093283       -0.02902107979308
H          154.19373615950809       -4.67170639863556       -2.57025310032705
H          154.14994303036104       -7.09275988762530       -3.04999851080346
H          155.34384613387090       -8.67507169941912       -1.54615348488050
H          157.80799309014489       -8.24788307710672        2.18445470455604
H          156.57961118324428       -5.39335510814603        0.91406912846476
H          152.76883255569595       -4.52152389720521       -0.33930335839451
H          150.91328469160956       -2.62760244085664        0.11257566536133
C          170.60499002063449        0.04375042718406       -0.09591988752311
C          171.21640107953954        1.29521542285770        0.11388921166703
C          170.55311736279415        2.54256377251066        0.24503024497778
C          171.50297831631067        3.50328052764582        0.46120181257145
C          172.77397194877105        2.86704701072809        0.47537257002442
N          172.55060708552472        1.53504472527524        0.25082880368663
C          174.02315632957337        3.47126987459659        0.66136799851164
C          174.01432752231963        4.93084478585716        0.93251990324046
C          174.63786108621557        5.81747640226084        0.05933350602015
C          174.62579334290874        7.18794881399628        0.31566902491004
C          175.30427333601909        8.08329133590372       -0.65546467645616
O          175.24065003222671        9.38055754603037       -0.32251512582277
O          175.86430509890417        7.70515941445860       -1.65217314199457
C          173.98935560159006        7.68106399795824        1.45457617825282
C          173.36867026012027        6.80004067741800        2.32609480583827
C          173.37770515221038        5.43643189692508        2.06854764970275
C          175.25541159689215        2.81865717740338        0.61078239311794
C          176.53021646759854        3.47241624639508        0.84783544472364
C          177.47885210779683        2.52565649823371        0.69612831386426
N          175.44909449765126        1.49673915829324        0.34704856742545
C          176.78133055753321        1.29434029601867        0.38083795660488
C          177.45251103497435        0.07728813216343        0.14588251683899
C          176.84295468941056       -1.16656000393189       -0.11013484305386
C          177.51038754879832       -2.39399476081148       -0.35760871443682
C          176.55959291481619       -3.36015462790463       -0.54264361587489
C          175.28307315485736       -2.74986880535100       -0.40657873027866
N          175.50532539031994       -1.42279159126359       -0.15359910169412
C          174.03126267238483       -3.36520964209883       -0.52787916887925
C          174.03669959579921       -4.82969739634555       -0.77189512931130
C          173.48499067150556       -5.35472255699811       -1.94262001414954
C          173.48976788172547       -6.72317795139548       -2.17428956759223
C          174.04195477892034       -7.58396590382360       -1.24050056361410
C          174.59554541734187       -7.07142925305125       -0.06633231984932
C          175.17622253260055       -8.02634279042757        0.91096230682006
O          175.68850045340039       -7.43487243321774        1.99998637816917
O          175.19880289662379       -9.22113925634280        0.76164094480021
C          174.59379789268701       -5.69731178564716        0.16492863737547
C          172.79795640390353       -2.71876775144068       -0.43992743690718
C          171.51802045584756       -3.39986921958538       -0.51921248873096
C          170.57037857529264       -2.44679293150736       -0.40289606214594
C          171.27305827216401       -1.18904875449697       -0.24184583905237
N          172.60655740484924       -1.38285018006730       -0.25768220841679
H          169.48605325257165        2.67943043761673        0.17648317696849
H          171.33981774855238        4.56092713610768        0.58890064044712
H          173.28018266135078        0.83269870986259        0.18996034242637
H          175.12670577286571        5.45327062718699       -0.83760322172621
H          175.70475004449611        9.89623295815015       -1.00194910877727
H          173.98277796723684        8.74595055699284        1.65295706086409
H          172.87452446517659        7.17584070400682        3.21488320145859
H          172.90116042484763        4.75192234646658        2.76148456588445
H          176.65931514982003        4.51123161604784        1.10457004460226
H          178.54839585523374        2.62228269978059        0.79181852716857
H          178.58118424564628       -2.51319550675399       -0.39195845641234
H          176.72612982861085       -4.40177947000933       -0.76343943162830
H          174.77351665568082       -0.73163192121874       -0.02706423790703
H          173.06326417830127       -4.68130095196981       -2.68028148588191
H          173.06130844444732       -7.11592204129881       -3.08930301403008
H          174.05299171782991       -8.65547393007818       -1.40513374232482
H          176.04406818033155       -8.12282179716520        2.58582605747912
H          175.01148918629940       -5.30338046599148        1.08393693769375
H          171.38415019053423       -4.46333551099648       -0.63338977250034
H          169.49801606702789       -2.55850150665314       -0.41276292319830
