177
 energy: -320.613193328249 gnorm: 0.000835812928 xtb: 6.5.1 (b24c23e)
Ni          36.36643574402510        0.03798457772608        0.03890307895977
C           32.97767257765016        0.02073350593949        0.12581012429795
C           33.62270041488512        1.23884545195138        0.18754933430677
C           32.94376685771522        2.49750033991744        0.24320623503541
C           33.89572741694538        3.44552901390490        0.40916685418767
C           35.15492496958819        2.76251444798398        0.47319333689752
N           34.98031570065407        1.41406774362610        0.28782357438357
C           36.36421080020530        3.38016198575237        0.76670478269667
C           36.37146190349048        4.82866968070197        1.07529504917701
C           35.64839383904481        5.32724095142968        2.16131413949001
C           35.66012056060102        6.67915624074210        2.45429675545695
C           36.39420507839468        7.56270495451494        1.65751982098684
C           36.40693747557167        8.95489134772597        1.95477314544159
N           36.41837958340468       10.08013161496836        2.19490032197652
C           37.11704643372472        7.06902401197430        0.56738164134732
C           37.10643044800248        5.71508093165804        0.28445474191509
C           37.56981778431593        2.68986151015917        0.79323953059167
C           38.81659037530026        3.27430083560707        1.18400644768587
C           39.76971340527501        2.33271364590363        0.98184915963992
N           37.75372273439266        1.38381361623055        0.40161219388847
C           39.10525994171957        1.17730432703945        0.46937257180282
C           39.77651480232625        0.04274649317426        0.00552882422510
C           39.10041179082238       -1.08909936384369       -0.45859965740835
C           39.75787439292018       -2.23346110391719       -1.00387380370631
C           38.80200863476025       -3.17057277136911       -1.21383428435390
C           37.56141320688693       -2.59657160529595       -0.78930165094905
N           37.75056477783943       -1.29825540136965       -0.37396014933408
C           36.35962294205391       -3.29187951296844       -0.74402975138776
C           36.35804155699580       -4.73244126910583       -1.08849296298844
C           35.59973694727594       -5.20245949726743       -2.16315798474509
C           35.59840325552748       -6.54671070942201       -2.48949443239961
C           36.35417315549405       -7.45121568160527       -1.73765694352623
C           36.35243443013400       -8.83536112428202       -2.07071723351762
N           36.34930874992702       -9.95357887356968       -2.34231252983697
C           37.11133968629183       -6.98631062794254       -0.65830272440467
C           37.11380679676163       -5.63960493338851       -0.34220654287492
C           35.15948647398893       -2.68976185264533       -0.38688044547325
C           33.91180688672750       -3.38716908552890       -0.27256743799449
C           32.96220246379713       -2.45400631459768       -0.02783650876146
C           33.63104062644236       -1.18945853497431        0.01722013481094
N           34.98279184094326       -1.34802504456268       -0.16190226841288
H           31.89447205284880        0.01468667705211        0.15740238661696
H           31.87540123575429        2.61940087254873        0.16246949942971
H           33.76979462215163        4.51352255402320        0.48247508062666
H           35.08811733151962        4.64355156882116        2.78901261033864
H           35.10257636142575        7.05781191008687        3.30293189291490
H           37.68452248066615        7.75155802328467       -0.05432104728891
H           37.66002848342983        5.33682523472280       -0.56752984465442
H           38.93632210370056        4.27314577419267        1.57065645881398
H           40.83010175832500        2.40144958537006        1.16129566429726
H           40.81535884348808       -2.29705826240908       -1.20139010230933
H           38.91601537864629       -4.16073116391571       -1.62388452558747
H           35.02120734560318       -4.50230480401534       -2.75513138759225
H           35.01321738376614       -6.90338322701434       -3.32897559819180
H           37.69458623931903       -7.68545414156410       -0.07054440249421
H           37.69359541724711       -5.28371824028903        0.50196945325978
H           33.79210470748603       -4.45427195473665       -0.36649527933638
H           31.90127145796007       -2.58952370426999        0.10934663507863
Ni          58.08877701331729       -0.00866160140298        0.10192855439011
C           61.47778950516450        0.01979617930983        0.33233864935143
C           60.82929045385234       -1.18575585390185        0.49748731003551
C           61.51438882485283       -2.42043376608212        0.73039012854421
C           60.56557728122034       -3.38208540741752        0.80447721200008
C           59.29958450854085       -2.72999393527633        0.63584183760098
N           59.47238691620778       -1.38299890966285        0.43753269586791
C           58.08085083306442       -3.39450434002610        0.66093352739719
C           58.07415529485531       -4.85695801132318        0.90682217380396
C           58.52324856910047       -5.36723990605419        2.12675638812206
C           58.51042814767627       -6.72935076208591        2.36755543995754
C           58.05047997598211       -7.61024063680502        1.38415512949724
C           58.03457188314234       -9.01222075817404        1.63137241541646
N           58.02423559367419      -10.14431673801635        1.83679793120579
C           57.60385074706237       -7.10413854415473        0.16008163883123
C           57.61405332544046       -5.74008487218868       -0.07176802594933
C           56.86476428298168       -2.74564374812941        0.49552918691506
C           55.59786371765856       -3.40519405389836        0.59628105832153
C           54.64802072463927       -2.45378917573934        0.43555314674641
N           56.69133793794989       -1.39806800646205        0.27615655618744
C           55.33538279093331       -1.21727451978449        0.23631341221554
C           54.67407161602247       -0.00458243046576        0.03840248621504
C           55.34481989671555        1.19995356835476       -0.17719965919002
C           54.66866340998821        2.42430725093572       -0.46876024752213
C           55.62719559095902        3.35679233671828       -0.68118794405195
C           56.88769346119074        2.70292329646791       -0.49779697557751
N           56.70210988065126        1.37287616470966       -0.19627674663396
C           58.11182264934375        3.34472697969398       -0.62573516017286
C           58.12669671499526        4.78620823987755       -0.97454126942612
C           58.67436195238542        5.20870342790518       -2.18753493887329
C           58.68646832885950        6.55024478163668       -2.52503186374113
C           58.15430250599388        7.49834755611238       -1.64622687611679
C           58.16620384784266        8.87977756574958       -1.99042195624376
N           58.17618944230700        9.99570207853039       -2.27075729364721
C           57.61088366280553        7.08036691889144       -0.42793515152662
C           57.59637605884397        5.73635978685027       -0.09966741226690
C           59.32533016431078        2.70039466635388       -0.42654314306323
C           60.59355044604370        3.36886831107901       -0.46196724375283
C           61.53361847483957        2.44092273617625       -0.16932268314468
C           60.84002941149217        1.20653758118713        0.03939676034945
N           59.48645778926345        1.37387699283535       -0.11441215258356
H           62.55815759023130        0.03107078637044        0.41691775598000
H           62.58514117802709       -2.51921653564346        0.81067312073323
H           60.69796440041952       -4.44152145257535        0.95192945069355
H           58.86950931270800       -4.68569571366702        2.89547454627301
H           58.85417142945049       -7.11824081132053        3.31886970671585
H           57.24991155296532       -7.78452604847406       -0.60554742906933
H           57.27491063094866       -5.35130890901693       -1.02526887606546
H           55.46294597113312       -4.45799519760161        0.78266351705814
H           53.57574839621026       -2.56329224551740        0.45370104284761
H           53.59765962445193        2.53675992208943       -0.51830013323580
H           55.50185826208664        4.39393748902458       -0.94565949258757
H           59.07974916264795        4.47441540108222       -2.87443568227913
H           59.10659867203285        6.87085407940648       -3.47112742876715
H           57.20218816278832        7.81346212049552        0.25759461470917
H           57.18356954731608        5.41647664277066        0.85038032368283
H           60.73035898169509        4.41765161532336       -0.66960814995394
H           62.60281081818085        2.56052241161634       -0.09678714673330
C           41.18557100086992        0.04280826038514       -0.00146045291614
C           42.40197061978418        0.03701234339826       -0.00945589918236
C           52.04789157219138        0.00499063080562        0.02032962707873
C           53.26319944989853       -0.00038318709279        0.03082000858198
Ni          47.22588641827201        0.02878596328379       -0.02311048792199
C           43.81070986888884        0.03530388204977       -0.01705102257821
C           44.48330435601189       -1.18021125341670       -0.17087151862334
C           43.82068609788708       -2.44024753796334       -0.27944680199594
C           44.77211753184827       -3.35754954571205       -0.57924142537595
C           46.01525629857766       -2.65282935474313       -0.65213032098363
N           45.83266130781553       -1.32312421024159       -0.35003931026874
C           47.21604450203903       -3.23399046947830       -1.04020525152980
C           47.20326036908065       -4.63896824490122       -1.50825453935628
C           46.44548287732660       -5.00003527768286       -2.62488477287577
C           46.43617564628124       -6.30699491106290       -3.07753862424059
C           47.18321085737969       -7.28385988323871       -2.41265336785511
C           47.17571293857540       -8.63005289216663       -2.87584925103835
N           47.17257463129769       -9.71764977394649       -3.25156618922379
C           47.93757942939351       -6.92902524857157       -1.29033826457529
C           47.94780019662132       -5.61856494183411       -0.84726485772209
C           48.42492560243750       -2.55082042414200       -1.00965508425656
C           49.67243775975150       -3.10790120330903       -1.43650961888083
C           50.63119484627074       -2.20167862176542       -1.12718523426128
N           48.61288924194114       -1.28847119081782       -0.49503935949953
C           49.96616991154076       -1.08876072548691       -0.52798929389659
C           50.63791277603976        0.01213934388033        0.00710780720992
C           49.96827394365892        1.12444001335225        0.52064691976628
C           50.63423446748493        2.24039946344783        1.11334478642564
C           49.68058519331704        3.16471404031011        1.38249615271409
C           48.43526675606882        2.61295294996894        0.94263454906438
N           48.61848943842524        1.33920372864879        0.45598760606503
C           47.23214897621504        3.30681688189414        0.94434193673334
C           47.22820263778119        4.72206118899937        1.38112213837895
C           46.47340051941358        5.11330939082541        2.48954694999456
C           46.47366153125324        6.43011516063091        2.91261225605437
C           47.22712433223996        7.38651161463936        2.22540643614020
C           47.22954076276110        8.74232972719431        2.65972421065947
N           47.23578343266196        9.83735039425862        3.01316238666146
C           47.97821483685643        7.00132930695034        1.11104254846418
C           47.97955560350891        5.68092428307020        0.69811191321066
C           46.02925199007387        2.72547208430343        0.56382046950589
C           44.78873566596073        3.43408500877287        0.48386998293478
C           43.83114040989753        2.51448932945678        0.21199737441784
C           44.48812991313366        1.25009108073628        0.12184945229555
N           45.83924594305412        1.39078944680221        0.28842335364111
H           42.76264487438078       -2.59074718374296       -0.14089742873246
H           44.65366609687549       -4.41805415093571       -0.73037173913962
H           45.87423378244626       -4.24250956330699       -3.14952352798602
H           45.85222720026363       -6.57784670207732       -3.94933733647698
H           48.51335093725637       -7.68508199152996       -0.76952591228655
H           48.52492868320507       -5.34955416273140        0.03017924471123
H           49.78993965476008       -4.06718391590127       -1.91338004336299
H           51.69511746080743       -2.26579590365086       -1.28879011790105
H           51.69538451169304        2.29510634511507        1.29549269486516
H           49.79970070351333        4.13275265689544        1.84098848592430
H           45.89715619428790        4.37169559097700        3.03116404402347
H           45.89235769238990        6.72487398874850        3.77839668283759
H           48.55860948435865        7.74138126564312        0.57264425940047
H           48.55530441567429        5.38767854123954       -0.17245529040610
H           44.67576515360580        4.49804432485728        0.61333024719722
H           42.77272770140871        2.66666862059227        0.07821020446462
