240
 energy: -416.101349740932 gnorm: 0.000952339409 xtb: 6.5.1 (b24c23e)
C           48.99758659543064        0.08470202709770       -0.02761761686498
C           49.60523104533263        1.33058189679971       -0.11137287271168
C           48.95269139419081        2.59470763398645       -0.15767273892892
C           49.91387131156176        3.56197862686585       -0.24040862062856
C           51.18498170355824        2.91897163008181       -0.26026580648898
N           50.94790269469284        1.57688240332897       -0.17075607513179
C           52.44777681626669        3.51726240066671       -0.33279742674297
C           52.47872499797299        4.99619721069386       -0.43147238094372
C           53.10266229567212        5.75593448593262        0.56108845886602
C           53.12756514554746        7.13652328514490        0.48108537356850
C           52.52980170656377        7.78661642207077       -0.60277693472043
C           52.55447965345549        9.20730764860092       -0.68929433997863
N           52.57217991148435       10.35577840727761       -0.75905335218678
C           51.90747355283150        7.03098775944555       -1.60081547883950
C           51.88138955478995        5.65069292718125       -1.51120594827471
C           53.66486082597412        2.83032596792066       -0.31467368895831
C           54.95880132061578        3.47299316038861       -0.45915443009384
C           55.88195276821736        2.49175178472117       -0.39052278454152
N           53.82326040335477        1.48547266431538       -0.18255031949258
C           55.15188088065209        1.25142300545902       -0.21303972449950
C           55.79094071390055        0.00571934298844       -0.06228382945268
C           55.15867890942012       -1.23990264786785        0.10265691454753
C           55.80321875251757       -2.49466328420656        0.26815387429911
C           54.83721860639959       -3.45739423949494        0.36278021551887
C           53.57068931521278       -2.82037179541762        0.24526334699421
N           53.81653979706096       -1.48090581439724        0.10103283483134
C           52.30897809784627       -3.42380480990463        0.28679873976206
C           52.27852750532487       -4.89958897249330        0.41951406957159
C           51.66217155500885       -5.49930360860564        1.52041734647593
C           51.63097929246311       -6.87632563448946        1.64731771116143
C           52.21392736726254       -7.68415309066139        0.66640879347429
C           52.18020433403250       -9.10181659015945        0.79086364544489
N           52.15344540395122      -10.24785155020578        0.89135460768442
C           52.83007705181289       -7.08926467809514       -0.43851666138642
C           52.86299382234571       -5.71138169277414       -0.55568055646213
C           51.09051146606229       -2.74123667520912        0.20675038550396
C           49.78810357831233       -3.38993770777792        0.19181814978107
C           48.87201969446656       -2.40506275917458        0.10424673932815
C           49.61352581487042       -1.15702890008701        0.05456801049065
N           50.94642273585102       -1.39869384460690        0.10871474801468
H           47.91232906185537        0.09206587660876       -0.02458816232758
H           47.88380960594130        2.73248847214231       -0.12318786019652
H           49.76189927343659        4.62849759441418       -0.27640600727720
H           51.67327826224968        0.86807517789753       -0.14586774972371
H           53.55611560116673        5.25584648349908        1.40938245377972
H           53.60795225777193        7.71908695341844        1.25841652122443
H           51.44723913779371        7.53119489075503       -2.44487147767638
H           51.40957774306131        5.06839825810516       -2.29467709983034
H           55.11766224252096        4.52889791258384       -0.60666227062401
H           56.95511842963231        2.57518805508593       -0.45202252069779
H           56.87106955622105       -2.63496621079234        0.30929440227603
H           54.98595564505712       -4.51477485927985        0.50882944332012
H           53.09393786176092       -0.77458753224672        0.00811555965366
H           51.21959363121973       -4.87609554222167        2.28916532515068
H           51.15611102922422       -7.33388837216655        2.50728016895429
H           53.27901555699704       -7.71221807488444       -1.20324227879963
H           53.32892706640509       -5.25482870216008       -1.42169960714791
H           49.62295318432376       -4.45466246269927        0.22933246059112
H           47.79690484075744       -2.48381179190561        0.06600975665328
C           88.45103713803118       -0.09481489900043        0.02401862362804
C           87.84689879102611       -1.29294313119021        0.38206380871603
C           88.50356203393275       -2.49531627504598        0.76784507007295
C           87.54520187935211       -3.43329386511647        1.02925351069028
C           86.27185305795099       -2.83664795486990        0.80179124972888
N           86.50465503527018       -1.54515143550431        0.42359824004214
C           85.01077364983738       -3.42494509766966        0.95043056677301
C           84.98615730415767       -4.85402568670923        1.34401674149183
C           84.37493487337306       -5.25094830676501        2.53571270408796
C           84.35384318143892       -6.58319231071452        2.90734659091246
C           84.94247911458362       -7.54949869009688        2.08614043857761
C           84.92036476611969       -8.92197595572933        2.46338409181005
N           84.90460324036056      -10.03176184974687        2.76726870293687
C           85.55297429898688       -7.15801964119755        0.89094650385621
C           85.57549792939371       -5.82320094824599        0.52864417772124
C           83.79132429784900       -2.77263689666212        0.75021037814906
C           82.49828846836425       -3.42626509175895        0.84387420953821
C           81.57297936012635       -2.48164637233748        0.57659488886319
N           83.62979099338611       -1.46348776227084        0.41477942223640
C           82.30100339230069       -1.25545331100890        0.31274441961968
C           81.65898780641268       -0.04447197723292       -0.01311763465808
C           82.28807054264686        1.17122857540148       -0.33841903761707
C           81.63967447200578        2.40312830873236       -0.61961127956719
C           82.60280679001450        3.33960605482676       -0.87383664130600
C           83.87120266441561        2.70510151875665       -0.76313385056806
N           83.62914061059155        1.39858878898669       -0.43114089466937
C           85.13177957285751        3.29052243934621       -0.92477875431560
C           85.15952514931222        4.72299765933316       -1.30283299136836
C           85.77245697933418        5.66151126668248       -0.46883087261705
C           85.79865599379458        7.00065046974680       -0.81382190452534
C           85.21367359795028        7.42806121285652       -2.00958138352425
C           85.24024382555112        8.80537131125173       -2.36836672962910
N           85.26211112424188        9.91869895099657       -2.65862782356765
C           84.60194432079449        6.49275679477327       -2.84950989989048
C           84.57421399692542        5.15586037295391       -2.49515091279298
C           86.35178316124541        2.62745698419710       -0.75321199545194
C           87.65324834040894        3.23478468886045       -0.98685214453827
C           88.57141329527357        2.28450284006287       -0.72070227027559
C           87.83229746422617        1.09546639578890       -0.33393498555415
N           86.49860516708628        1.33616352029540       -0.37433497820465
H           89.53632947835219       -0.09856254572914        0.02679535090163
H           89.57316332653087       -2.61222915072321        0.83815335060814
H           87.70046604084784       -4.44744613531558        1.35982231796807
H           85.77674561475671       -0.87179237907196        0.20918609186259
H           83.92824203448353       -4.50311509142098        3.18110521095848
H           83.88292926906658       -6.88262223320004        3.83631962970661
H           86.00621771758841       -7.90471548541469        0.24947894385931
H           86.03772794822025       -5.52586712100026       -0.40595211170978
H           82.34132637805581       -4.46926491140477        1.06627322052957
H           80.50039108583481       -2.58497543335017        0.53996034196971
H           80.57177874652766        2.54929539213865       -0.61428122616492
H           82.45085872166462        4.38128180360219       -1.10479933579658
H           84.35417026840646        0.70836711615105       -0.26503492657716
H           86.21557552095187        5.33600128083008        0.46551622366810
H           86.27053031731350        7.72329216064136       -0.15843261399434
H           84.15176074295999        6.81953726482665       -3.77955567025252
H           84.11141948272653        4.43217287835331       -3.15666906317083
H           87.81654846169486        4.24581885814145       -1.32356724880364
H           89.64659249130453        2.34870798250638       -0.77884041219925
C           57.20201887938853       -0.00842643096938       -0.07027230734065
C           58.41846498871502       -0.02395335998567       -0.07308664084441
C           68.11688017795021       -0.05841155987461       -0.05311366455567
C           69.33507904112341       -0.05320937486569       -0.04358206851610
C           79.03235916338686       -0.02460880300244       -0.02145456293715
C           80.24910286950339       -0.03618286495339       -0.01673322036843
C           59.82854408797451       -0.03497437402201       -0.07821673324444
C           60.46101538229208        0.88265231614811       -0.93692436495444
C           59.82489155575226        1.82660683730735       -1.78400101515378
C           60.79603610248115        2.47479302516514       -2.49694575357036
C           62.05439246403215        1.93507013958294       -2.11424765397983
N           61.80266311389526        0.99116938710666       -1.15579543972081
C           63.31463112248822        2.27838884119742       -2.61989685589642
C           63.33694866972366        3.27765978963307       -3.71486976498965
C           62.67200212038458        3.02990973337455       -4.91822202290828
C           62.69467930507811        3.96116534201477       -5.94085286214177
C           63.38159732751871        5.16748585461025       -5.77532784905186
C           63.40291166094502        6.13001675171012       -6.82396655146321
N           63.42162889167744        6.90565319266123       -7.67375387426736
C           64.04697467224800        5.42146675767743       -4.57226567157107
C           64.02535225609850        4.48302106990151       -3.55642428687452
C           64.53517987956369        1.75847842603452       -2.18451632576581
C           65.81014140993108        2.06457500299459       -2.80770797725855
C           66.74944587704147        1.40742890549843       -2.09637080753364
N           64.71927003947059        0.90802512700445       -1.13739379373158
C           66.04867764956796        0.69941560164853       -1.04437740663557
C           66.70920192042885       -0.06430387103154       -0.06011894960018
C           66.07277003016841       -0.84200224809522        0.92707458836003
C           66.70259404366955       -1.57404933557011        1.96581375798534
C           65.73053950160980       -2.22978856162835        2.67051228661158
C           64.47608783966318       -1.91887670098260        2.07887001635483
N           64.73199708726298       -1.06304861968068        1.04129360392160
C           63.21620707347378       -2.38559289249381        2.47405161911243
C           63.19735154177079       -3.37305249931079        3.57982768523013
C           63.85567301547655       -4.59814462735454        3.44843460945917
C           63.83621930954710       -5.52289529355298        4.47709256986250
C           63.15969257390437       -5.23454021581598        5.66606674125364
C           63.13874658980067       -6.18320388526044        6.72726441860631
N           63.12671388191384       -6.94681690519451        7.58786092235101
C           62.50270207367778       -4.00822299546642        5.80440047454509
C           62.52109182733734       -3.09094452470562        4.76937664987897
C           61.99378496250203       -1.99566529994079        1.92266481306215
C           60.71267888791124       -2.55318026847602        2.31871662367810
C           59.77406570618337       -1.89691305513806        1.60583204000257
C           60.48261747684307       -0.94998408829540        0.76810538254414
N           61.81441699078435       -1.04618866275118        0.96508038595506
H           58.76002451825422        1.98426950634286       -1.83722355713684
H           60.65458317555571        3.26207004842942       -3.21919470408592
H           62.51527722734815        0.44699458665635       -0.68116757826311
H           62.14992069442855        2.08979892713745       -5.05658533927801
H           62.18199582350795        3.75857701357793       -6.87387839395391
H           64.57783502994326        6.35680564409591       -4.43919355337869
H           64.53282400994004        4.68807933544023       -2.62061687128688
H           65.94524335787813        2.68149096193538       -3.68123719816333
H           67.81388654447483        1.37437050917574       -2.26151490461011
H           67.76325869060324       -1.58433675859448        2.15393349321065
H           65.86824470588610       -2.86244473469121        3.53204039960768
H           64.02142074545071       -0.64918072290959        0.44725257077952
H           64.37007386598737       -4.83162574970282        2.52298045523241
H           64.34311733418413       -6.47408634483391        4.36444463753449
H           61.98056239981836       -3.77967248231969        6.72610944991906
H           62.02081822410162       -2.13616762696885        4.88499829705698
H           60.57208632708817       -3.34634069326791        3.03493803141128
H           58.70376076674337       -2.02491176182059        1.62681948952661
C           70.74281416834334       -0.04336200191154       -0.03817770330119
C           71.37186112904537        0.96409244305460       -0.79600420920435
C           70.73233274509785        2.00486015269236       -1.51656791789499
C           71.69906486369408        2.73544807859375       -2.15161914307937
C           72.95975901909102        2.15877660025665       -1.83841845601634
N           72.71267928064370        1.10365821016784       -1.00161172196429
C           74.21704330554759        2.58098778683312       -2.28899460549229
C           74.22445140612879        3.69236511867941       -3.27022502790995
C           73.57548465185673        3.55308900487635       -4.49965563572621
C           73.58544399466015        4.58281823373118       -5.42310107804827
C           74.24295692945630        5.78112659594856       -5.12922762709693
C           74.25376088628897        6.84376524673341       -6.07648848658399
N           74.26157933154963        7.69992509474200       -6.84518414404463
C           74.89012041683760        5.92748202354537       -3.89868331723666
C           74.88133576287940        4.89118684138814       -2.98249190501144
C           75.44479238305247        2.04217561856256       -1.89909222401616
C           76.72321136121633        2.45894131727703       -2.44758076054795
C           77.66639692750550        1.73483806406660       -1.81025464761004
N           75.63097705957878        1.06616681634066       -0.96937983331454
C           76.96326146348500        0.87228629618134       -0.88168458159009
C           77.62343194439757       -0.02344853867215       -0.01884494928610
C           76.99791175949409       -0.93058789986968        0.85657775395402
C           77.64163830731880       -1.79261341175160        1.78145245797303
C           76.67563640856480       -2.51601671353832        2.42584731089635
C           75.41291888330636       -2.12280575810147        1.90449636955020
N           75.65746731555492       -1.15199690271431        0.97110697777768
C           74.15399229488058       -2.62244754431305        2.26073395362803
C           74.13675235038750       -3.71659173772865        3.26096056435467
C           74.79222260939913       -4.92443778259936        3.01062029443504
C           74.77794158844085       -5.94150821554710        3.94818000425148
C           74.10920882920898       -5.76573459828350        5.16319084678565
C           74.09734634912243       -6.80766882692522        6.13313224810701
N           74.09224050059451       -7.64926667839874        6.91791360641331
C           73.45160199222927       -4.55880043967474        5.41887145868243
C           73.46470446710593       -3.54869508399159        4.47434088041320
C           72.92972671999590       -2.17730659785769        1.75796351486241
C           71.65672361104865       -2.80133661333636        2.07018206062184
C           70.71335535373395       -2.08775772005325        1.42148080931583
C           71.40916911326319       -1.03076669921561        0.71603056953361
N           72.73996980969892       -1.12408755433271        0.91645623615364
H           69.66897081341101        2.17653537059580       -1.53371760228444
H           71.55350656059251        3.60522442986883       -2.77106585990968
H           73.42889352082960        0.51286636909760       -0.59280056517055
H           73.07599672553576        2.62050171875160       -4.73709394766048
H           73.08618298220529        4.46386313638740       -6.37755481637477
H           75.39737071983335        6.85642069871086       -3.66598999805697
H           75.37385470202015        5.01320442770442       -2.02449074317900
H           76.85889042255955        3.19237640672988       -3.22571856242579
H           78.73553118774450        1.75409699764611       -1.94853371567532
H           78.70696001920123       -1.83982067617225        1.93798224766600
H           76.82350508552761       -3.24894022828398        3.20193708243840
H           74.93965595516370       -0.66242135377437        0.44749534804082
H           75.30055127508622       -5.07064219462387        2.06421785522435
H           75.28365102272059       -6.87794692590759        3.74400521841343
H           72.93402581967081       -4.41808273397881        6.36050328005257
H           72.96400861568928       -2.60955373523308        4.68073693537841
H           71.52591798066312       -3.67786764493823        2.68371861148291
H           69.64869910865740       -2.25248719727116        1.39498493951561
