193
 energy: -359.702694666262 gnorm: 0.000589802729 xtb: 6.5.1 (b24c23e)
Zn          35.94129047577136       -0.04495536118544        0.01585320702107
C           32.53356334104416       -0.10200989200914        0.02201507806213
C           33.15529770480481       -0.14739439500442        1.26387410177788
C           32.47259748619975       -0.18069075707600        2.52720424791209
C           33.42475970182765       -0.20262947569092        3.49265071833561
C           34.70255732289079       -0.19278087912385        2.82983293158399
N           34.50342580328658       -0.15140501032608        1.48110346895605
C           35.94962982843911       -0.19066678351393        3.46663930782421
C           37.19342600467571       -0.13760966495234        2.82684120900597
C           38.46941069355665       -0.18986941507970        3.48667949897416
C           39.42158065007261       -0.13380938644698        2.52132764737188
N           37.39473845040003       -0.06360387580178        1.47539242276851
C           38.73894461838947       -0.05463931079654        1.26274640151465
C           39.37577100610054        0.01175202773040        0.00942411730234
C           38.73234395133217        0.06280709278648       -1.24130973170886
C           39.40866339765891        0.10053465014508       -2.50520658553365
C           38.45169157827926        0.12763170030637       -3.46706623864867
C           37.17902038485180        0.11526500679967       -2.79896871771356
C           35.93198633511155        0.11386134213218       -3.43451260133103
C           35.92547651345718        0.18039513761146       -4.91621913056527
C           35.38145925552803       -0.86465129612455       -5.66811974650745
C           35.37374519766294       -0.80173240477009       -7.04919410349550
C           35.90514168135626        0.31012137611613       -7.70590524422055
C           35.86905020222372        0.33415362724253       -9.18700691821639
O           36.39889589837168        1.44620068438069       -9.72006464747910
O           35.41184028617440       -0.54598693450034       -9.87153163092152
C           36.44835015599477        1.35708225777364       -6.96028219733487
C           36.45969124285504        1.28901060183090       -5.57812715459589
C           34.68828636695393        0.05389448014538       -2.79381015029667
C           33.40715191398526        0.10081050879281       -3.44861643136860
C           32.45984833044097        0.03824410281813       -2.48018798893919
C           33.14888048591070       -0.03832933003015       -1.22219613057982
N           34.49594095852152       -0.02245230715722       -1.44569895259158
N           37.38710729115436        0.06867206959148       -1.44729341581636
C           35.95236213755035       -0.24992783477137        4.94869627988327
C           35.41160793697530       -1.35355686759139        5.61424093090084
C           35.41607649281270       -1.40754744579486        6.99573576844648
C           35.95642717501538       -0.35643678490038        7.73945890469580
C           35.93536904438282       -0.45830645331778        9.21755852820785
O           36.48234479202919        0.59945785671339        9.83687143052998
O           35.47839739397111       -1.39000623388761        9.83005684659767
C           36.49535106549588        0.74902002969254        7.08029166659569
C           36.49443782630601        0.79805135854751        5.69729695473251
H           31.44796216082757       -0.10671332971467        0.02463548465819
H           31.40063647914683       -0.17952568563224        2.64784203440047
H           33.27953845832685       -0.21207656056134        4.56102114541532
H           38.61602379885619       -0.27323533545028        4.55150933332927
H           40.49305283785941       -0.15111523775745        2.64204244938942
H           40.47955525780396        0.09862547675319       -2.63221797159857
H           38.59308789601508        0.14111927649013       -4.53578539072107
H           34.97909063987166       -1.73412602166497       -5.16069825386047
H           34.95784497247380       -1.61181373154393       -7.63820905391449
H           36.33409802524724        1.38332291534832      -10.68676899140977
H           36.85877036854137        2.22347664737975       -7.46545125612608
H           36.87017487158023        2.10864868117938       -4.99906068142927
H           33.25661596950702        0.18451505499820       -4.51300929142354
H           31.38731221677339        0.04956699422837       -2.59504845453607
H           35.00292669762519       -2.17640069760495        5.03868418338530
H           35.00329414151413       -2.26375161489384        7.51793067039480
H           36.43011859419813        0.45468330747937       10.79550686052537
H           36.91228941231943        1.56892547826800        7.65311133203595
H           36.90218249373857        1.66289624634025        5.18603477493257
Zn          62.91569827698475       -0.02733495636745       -0.04708542820886
C           66.32313079127526       -0.08923893617191       -0.06514083989828
C           65.69987295506574        0.01309969981093       -1.30285027853937
C           66.38092445673266        0.12556346820267       -2.56251164734576
C           65.42752132962119        0.22075572550898       -3.52229655579333
C           64.15061381269409        0.15875585300451       -2.86065023746713
N           64.35148666979197        0.03977591013811       -1.51681560802956
C           62.90301843108092        0.24491946621147       -3.49044445514166
C           61.66023359290701        0.22990761252187       -2.84679987122616
C           60.38335746050099        0.26861278006491       -3.50573921744191
C           59.43250553961602        0.21093091468298       -2.53916341709092
N           61.46070894648133        0.13801466586879       -1.49613939688276
C           60.11686401144103        0.12823994557423       -1.28175085587896
C           59.48133715406868        0.03344234632452       -0.02951749491825
C           60.12597998139181       -0.07817648990566        1.21661749239790
C           59.45121395953198       -0.20085830277830        2.47594510917475
C           60.40938885772540       -0.29126975262122        3.43272599794188
C           61.68122148171112       -0.21665502812471        2.76704691225619
C           62.92906176486077       -0.29125522214428        3.39663715816332
C           62.93707922036413       -0.40215702639168        4.87568711828635
C           63.48573410743879       -1.52698482657532        5.49786897678879
C           63.49520544430315       -1.62806696535297        6.87670032823176
C           62.96100988165873       -0.60375013492541        7.66106198894595
C           62.99965916929440       -0.75489469738542        9.13465211148728
O           62.46751796988109        0.28472349838248        9.79600751659347
O           63.46066573341572       -1.70838298326886        9.70958339354141
C           62.41284700336809        0.52207858569779        7.04531043991671
C           62.39970375545901        0.61815859611239        5.66484829081258
C           64.17204277315246       -0.27031959276749        2.75206922169468
C           65.45405303650233       -0.30085559901984        3.40612523930546
C           66.40006904914289       -0.24657690698020        2.43594706902744
C           65.70938198165376       -0.17274745905418        1.17868810307387
N           64.36262489132318       -0.18425195584063        1.40425109641309
N           61.47148129153926       -0.09561849673083        1.42026998738195
C           62.89836426525007        0.36060611743541       -4.96924837070036
C           63.42603904388854       -0.66354646807681       -5.76042105048075
C           63.41845370857153       -0.55623959963900       -7.13877361067740
C           62.88855552547420        0.58017961770848       -7.75329428479601
C           62.90607996246618        0.65045358882042       -9.23336694451250
O           62.37330864187184        1.78012165316147       -9.72445738793398
O           63.34944950663613       -0.21047119191034       -9.95060862315789
C           62.36335694239479        1.60723821114240       -6.96822375474233
C           62.36686787690992        1.49460142484414       -5.58892673069855
H           67.40871826916589       -0.09510123769298       -0.06975422902118
H           67.45273374836532        0.13641674167106       -2.68402410025463
H           65.57124800309599        0.33562665495791       -4.58472901650212
H           60.23510685965949        0.31908141551547       -4.57241647213973
H           58.36082800528220        0.21591402677683       -2.65921259340023
H           58.38049313767172       -0.22121948091336        2.60274872632749
H           60.26950962744417       -0.41161238247563        4.49493061572965
H           63.89036034949404       -2.32881156493775        4.89064472307942
H           63.91482399204262       -2.50069375478904        7.36516260965634
H           62.53372471391407        0.10840350626770       10.74847515604536
H           62.00003552244531        1.32096729551588        7.64998722512168
H           61.98537171309399        1.49904231486678        5.18737019767564
H           65.60604674156234       -0.34503941804485        4.47267904113305
H           67.47275822072257       -0.24844416009167        2.54992763588919
H           63.82692968698656       -1.55205836061448       -5.28587131692244
H           63.82072559327435       -1.35020400252803       -7.75839276319753
H           62.42381655676878        1.74752050408399      -10.69353065044334
H           61.95476672125300        2.49284515979578       -7.44043498418725
H           61.96941316513889        2.29815976108476       -4.97908596429544
C           42.00688862036105        0.02433178929840        0.00085014551833
C           40.78608360931217        0.01832216798805        0.00527297318578
C           43.35987783528604        0.03071273028606       -0.00414913840995
C           44.58075504216755        0.03395312725650       -0.00454290165239
C           55.49739337282823        0.04660744376639       -0.01900480616828
C           54.27650968704802        0.04674140850399       -0.01771185332636
C           56.85030855936439        0.04413556469165       -0.02168094272507
C           58.07113499431006        0.03976024545741       -0.02428378660637
Zn          49.42872054984571        0.04072138237052       -0.01135733207482
C           45.99071699069400        0.03646016859478       -0.00797124284668
C           46.63393291334829       -1.21460700749076        0.03730303466125
C           45.95778373438393       -2.47861754251710        0.05347165011587
C           46.91458290799787       -3.44005073162208        0.10051984094311
C           48.18593152217901       -2.77083345615464        0.12407946573359
N           47.97889776992102       -1.41921937733166        0.07485356546596
C           49.43326858552336       -3.40416978801565        0.16312472283655
C           50.67867399222087       -2.76607267082577        0.14070239475594
C           51.95153268407791       -3.42580267846942        0.23656104399614
C           52.90585367354468       -2.46189859625701        0.18821919361834
N           50.88221750384812       -1.41600466010793        0.05174885979797
C           52.22656504966791       -1.20492714809015        0.07159687659591
C           52.86665928752846        0.04549091888421       -0.01636834694594
C           52.22333791716338        1.29429053282618       -0.10309849403425
C           52.89932160129840        2.55288929787255       -0.22128311051551
C           51.94255460668676        3.51442658819641       -0.26829179973258
C           50.67142982843883        2.85162103864230       -0.16949056766678
C           49.42413247287706        3.48628705740728       -0.18840769323088
C           49.42277749442590        4.96793100361520       -0.26048837065518
C           50.00284356827004        5.72637623878324        0.76014085788687
C           50.00026404833637        7.10727409011615        0.69233432231366
C           49.42118849569148        7.75718713388333       -0.39948969061495
C           49.44624665202251        9.23864169214460       -0.42885746343110
O           48.85674071384906        9.76488063742253       -1.51342940079874
O           49.94305330406478        9.92821913451461        0.42546301063606
C           48.84214803638672        7.00498361191831       -1.42218513723970
C           48.84232654991155        5.62300643640366       -1.34974447941759
C           48.17853783594948        2.84947782506225       -0.14430392106072
C           46.90562910247241        3.51539314907937       -0.11328773208019
C           45.95137866899901        2.55141220854771       -0.06409035593501
C           46.63072036351024        1.28912704247542       -0.05417223954284
N           47.97503371934110        1.49728066269258       -0.09708377885819
N           50.87849229617400        1.50206237561332       -0.08101316200522
C           49.43633064389276       -4.88602114541507        0.23330372045942
C           48.86666775411030       -5.54535477423085        1.32586500115663
C           48.87286649874669       -6.92655018944237        1.38893538065266
C           49.44431568772652       -7.67562281349139        0.35842256214942
C           49.42359644806506       -9.15340570051857        0.46967099096874
O           50.00249179062600       -9.77847481307004       -0.56708450332888
O           48.93992265894554       -9.75984553299342        1.39172554099919
C           50.01251521455796       -7.02253484548243       -0.73588393796175
C           50.00949521123236       -5.63991914687114       -0.79412831346033
H           44.88739074567466       -2.60611494330857        0.02457100371528
H           46.77375610214614       -4.50883753932743        0.10715695246834
H           52.09483372145250       -4.48921781180208        0.34073560914172
H           53.97644649432944       -2.58271031843383        0.23386425559664
H           53.96956307305467        2.67630791442099       -0.26858900783888
H           52.08332354859720        4.57812363106248       -0.37298409862677
H           50.44163841063549        5.22434750541709        1.61499084177175
H           50.44428678449218        7.70143048575916        1.48351361896605
H           48.91717547996622       10.73227933187867       -1.45699064086518
H           48.39485758510558        7.50478459461845       -2.27326705605961
H           48.40399035935559        5.03879798615411       -2.15108640877726
H           46.76206159312783        4.58387094096670       -0.11546996420386
H           44.88078578832859        2.67607666925161       -0.02961421308257
H           48.43354032066120       -4.96557493659685        2.13306025884965
H           48.43731243175971       -7.44416751035334        2.23658859481387
H           49.94697685824265      -10.73633376088169       -0.41819253707155
H           50.45396223350032       -7.59967229298984       -1.53977257337018
H           50.44016984582731       -5.13298481400980       -1.65035149223241
