228
 energy: -388.129164422694 gnorm: 0.000812443972 xtb: 6.5.1 (b24c23e)
Co          47.23183901595042        0.00319171077525        0.01380409574465
C           43.86624260980586       -0.03286253887347        0.21438370699466
C           44.51003309665358       -1.18375482129191       -0.18847980293370
C           43.83624356990082       -2.39712907196017       -0.53837970659862
C           44.79380206817574       -3.34053615131078       -0.69871021850233
C           46.05208891003073       -2.70298285957254       -0.44039154825941
N           45.86939782795683       -1.36874754976659       -0.18080684620660
C           47.24845597415292       -3.38695568451855       -0.27085119014896
C           48.43018523492533       -2.73459398605411        0.04436897996610
C           49.68027092748045       -3.39806103328927        0.26236181645366
C           50.62472224444502       -2.43176366550738        0.35485470571009
N           48.60796879217848       -1.36948174994976        0.03771296434889
C           49.95462609557924       -1.18213751151932        0.17778827809934
C           50.62406614062499        0.02914085193300       -0.02018588535165
C           49.93206125175161        1.22225821321715       -0.25111083022955
C           50.56876508534902        2.46389931967314       -0.55597085879858
C           49.60287779948995        3.41384667369476       -0.53600345609059
C           48.38055681790774        2.75093904696311       -0.19376440759534
C           47.20278512897101        3.40593046083167        0.13209854551128
C           47.18332370101948        4.88607687337896        0.16872735735401
C           46.29928632919517        5.60107832500109       -0.64086740470479
C           46.28141278529218        6.98714303351214       -0.60595947267371
C           47.13983890623673        7.67549971771477        0.24064877551861
C           48.01930649601724        6.97148490400359        1.05202452355427
C           48.04416381310748        5.58556205128703        1.01601851833502
C           46.04081636897218        2.70953857186873        0.44260516929103
C           44.81976020381870        3.32504219170408        0.87318244644852
C           43.88032083040379        2.35024962034380        0.90614757477270
C           44.52967533257551        1.14124332777200        0.49956468949265
N           45.86717292645325        1.35993654918458        0.28109601753708
N           48.58604046983812        1.39291704403864       -0.09293596133801
C           47.25226043033173       -4.86481611112072       -0.40270466044995
C           47.02291331749346       -5.46182777586225       -1.64212706807822
C           47.02500577204135       -6.84345548585958       -1.76390512855455
C           47.24983516008785       -7.64207809671092       -0.65086269473348
C           47.47537641927178       -7.05392329540463        0.58620286226961
C           47.47921394299288       -5.67261924499593        0.71145116912366
H           42.78580557563322       -0.04804276311910        0.29660406204475
H           42.76638055746669       -2.49741786042539       -0.63014014217393
H           44.67197792155996       -4.38334201772977       -0.94310817782176
H           49.81030642306977       -4.46660362263437        0.31646946546735
H           51.68676983470862       -2.54297437248993        0.49981504381551
H           51.62131365938784        2.58065267762297       -0.75560959501234
H           49.69970514346889        4.46995323039228       -0.72818562271282
H           45.63661106088269        5.06548529914539       -1.31155084352338
H           45.59430919659052        7.53250828927830       -1.24343974545749
H           47.12298353455096        8.75912689574670        0.26863571119830
H           48.68881558105524        7.50433796880972        1.71816553605977
H           48.72144689799647        5.03716297318804        1.66126214330099
H           44.70978499680491        4.36951581915536        1.11621651468077
H           42.83663280217602        2.42539954742453        1.16713328051568
H           46.85627995192750       -4.83831382689139       -2.51342053031598
H           46.85041495038884       -7.29835530915591       -2.73265396590403
H           47.24846483057161       -8.72191336084220       -0.74722856569647
H           47.64774904327572       -7.67365238315220        1.45921451730281
H           47.64349701402126       -5.21419963681841        1.68024773463196
Co          79.57142742527500        0.08741099926777        0.35345651479460
C           82.57737983954448        0.12839539533893        1.79252093469918
C           82.04676483631506        1.33165425916354        1.37042115071683
C           82.73035601121863        2.58628197502569        1.45313971629964
C           81.96441956124377        3.49074268519983        0.79621648706304
C           80.78208997910825        2.80159801998323        0.36850773313445
N           80.85695106203413        1.47709044515324        0.70553087466270
C           79.64807308290978        3.44215102659901       -0.12035574293396
C           78.42491418170133        2.79037141987217       -0.19008613686627
C           77.16305901350745        3.43648419032852       -0.38967999682350
C           76.20747314661891        2.48702134499548       -0.23527224635440
N           78.23848789043751        1.44216456330043        0.01097179730888
C           76.88897377680648        1.24830264084850       -0.02442859457805
C           76.25098837760680        0.00243644965270       -0.08557119076623
C           76.97940354491112       -1.17782845028264       -0.28524811882740
C           76.40051722849073       -2.39759343888617       -0.75149585086636
C           77.42307511133953       -3.26570063390357       -0.94862187061017
C           78.61739831092358       -2.60010327018502       -0.52164386192853
C           79.84216282848007       -3.22221341130639       -0.33260892629521
C           80.02470940336546       -4.63901242678002       -0.72449887830956
C           81.00071498221510       -4.97443165113975       -1.66392768341722
C           81.18585956732713       -6.29585580646102       -2.04071511935120
C           80.40744871253004       -7.29771880199701       -1.47682493830396
C           79.44394689136304       -6.97301447263322       -0.53172565721889
C           79.25119962140762       -5.65176277719615       -0.15658031056255
C           80.88470992805937       -2.58270391623344        0.33317542493065
C           82.03264477417410       -3.25755013269129        0.86365199536671
C           82.73823943312883       -2.33943883445385        1.56760852342524
C           82.05246821487249       -1.09180530484182        1.41795153679568
N           80.90537268810870       -1.26175868994308        0.68369889922681
N           78.33158066661240       -1.29959628209467       -0.16883529730406
C           79.74106725243136        4.88397181956607       -0.45069768780749
C           80.53762096297471        5.29185285096186       -1.52137480590837
C           80.63591585783277        6.63540325164705       -1.84942794915119
C           79.94941367623701        7.58660000400375       -1.10676199583843
C           79.16587937362256        7.18898717639168       -0.03211979171472
C           79.05993386564059        5.84532575550549        0.29582376109889
H           83.51499965771410        0.14093627293900        2.33596489259974
H           83.68570314409482        2.73253822043753        1.93169744374325
H           82.15098688677192        4.54148053642683        0.64310974412979
H           77.03047036100574        4.48451551736169       -0.60312910069333
H           75.13727205376203        2.59453006701475       -0.30920268801401
H           75.34937435779629       -2.54498164753814       -0.93957432891558
H           77.37700069770997       -4.27355612829629       -1.32751995962196
H           81.60491084940600       -4.19097594342926       -2.10769424374002
H           81.94215128520607       -6.54462012741776       -2.77689003710684
H           80.55465083982511       -8.33087691976402       -1.77036406407038
H           78.84031499457390       -7.75306855075095       -0.08113077226415
H           78.51249672958495       -5.40382010192641        0.59735938431775
H           82.24226981932303       -4.30705563734403        0.73359117452660
H           83.65747252043364       -2.47069974377324        2.11608738237014
H           81.06945064338522        4.54765816787593       -2.10371375780651
H           81.25185835045143        6.94104705381010       -2.68790397592426
H           80.02848436785310        8.63704756480665       -1.36285127478673
H           78.63574582179372        7.92932156894294        0.55675900403752
H           78.46347025380361        5.53990352386247        1.14817245187171
C           52.02917072324505        0.04457941978243       -0.00800857814254
C           53.24707202706558        0.06173617332322        0.01328598796979
C           62.83053189170279        0.05178197162409        0.12152357381116
C           64.04939985200811        0.04344789733112        0.13531022801291
C           73.63200294575509       -0.06971675035987       -0.03984342628044
C           74.84955403048845       -0.04286537335059       -0.08292367643173
Co          58.04070279910205        0.06178373806316        0.06268270055110
C           54.65093973192013        0.06714743963630        0.03779387023751
C           55.32952777060068       -1.02866045798411        0.58341458084460
C           54.68710677242920       -2.14953643626255        1.19096605112000
C           55.64204793429255       -3.09538030592005        1.37345166049521
C           56.86367324671481       -2.54901892597396        0.86670356992766
N           56.67259588953040       -1.24896754459791        0.46172902180011
C           58.02914243517468       -3.27731151018782        0.65997754139810
C           59.20013964969944       -2.67259129120483        0.22257208197225
C           60.41581865654525       -3.36547796540713       -0.07754798986626
C           61.37623657712383       -2.41958595608576       -0.23045516438864
N           59.40227578313900       -1.31307485889376        0.17308200776381
C           60.74254094471729       -1.15573750754459       -0.03060764360823
C           61.42905313324309        0.05698625334227        0.10909495532197
C           60.74483847480347        1.27141788056209        0.24060348685460
C           61.38298847765531        2.53170398211318        0.44976019607210
C           60.42799441849278        3.48241435037150        0.29616573045828
C           59.21132411517985        2.79674970817942       -0.01760520972056
C           58.05025873791075        3.41179635161181       -0.46605420235319
C           58.05283403938479        4.87182655838416       -0.70446704764940
C           57.13691852333154        5.69716954543373       -0.04960365394406
C           57.14347861249654        7.06584973184429       -0.27106543071815
C           58.05761187954410        7.62638520231182       -1.15294574288901
C           58.96865586464781        6.81186980793902       -1.81178610845796
C           58.97018924726799        5.44357820033235       -1.58791914751102
C           56.88505457357672        2.69114941524993       -0.70160134026532
C           55.67849303358479        3.24300149563978       -1.23683481313633
C           54.71961290022224        2.29370232440898       -1.09542580593472
C           55.34405242988050        1.16703324507237       -0.48046273720474
N           56.68130149294742        1.38981529515331       -0.30964288747421
N           59.40553331937994        1.43530306987193        0.03211405935719
C           58.02006511180756       -4.73583902363562        0.90681307680166
C           57.11093113688428       -5.55997604783462        0.24099611106262
C           57.10635080871767       -6.92736272111786        0.46994071771019
C           58.00275811906349       -7.48779642229317        1.36991692069855
C           58.90796470691608       -6.67467089460834        2.03842733875890
C           58.92074851538192       -5.30762266941026        1.80713005297897
H           53.63933772940847       -2.19644105925170        1.43886726520878
H           55.53770505355381       -4.07605078001402        1.80831115379013
H           60.51292900617068       -4.43590709405623       -0.15873735529706
H           62.42195962833802       -2.55360831990337       -0.45492088239648
H           62.42824239404371        2.65949973289098        0.67999815645638
H           60.52959425532561        4.55198075348214        0.38257694523571
H           56.43119783101359        5.26323559920059        0.64996712654371
H           56.43187107885065        7.69806065645632        0.24832855732804
H           58.05986326411944        8.69644964674558       -1.32675749858257
H           59.68173270101889        7.24412642093105       -2.50497338016676
H           59.67290430427574        4.80754236890366       -2.11459393172272
H           55.58571866138443        4.22837766841245       -1.66368934460753
H           53.67974398155378        2.34279557643159       -1.37432963290908
H           56.41954997054940       -5.12608385848658       -0.47277386258670
H           56.39998739968199       -7.55855931081454       -0.05776255580921
H           57.99582172181013       -8.55680166617574        1.54998933893269
H           59.60764598068331       -7.10703049324403        2.74506755742615
H           59.61904306532706       -4.67258400961009        2.34084073653897
Co          68.84215619741933       -0.03223154795095        0.14472729860490
C           65.45081281113372        0.02374738185961        0.15474946237461
C           66.11384600913009       -1.20197029918534        0.29326703673559
C           65.45137891425613       -2.44886155232306        0.50571415141624
C           66.39498973644940       -3.41596262591166        0.38920325002884
C           67.62760557681518       -2.75323711752794        0.08928751055652
N           67.45359627302322       -1.38828340236924        0.11190099821240
C           68.78451379047560       -3.39550661701487       -0.33029896009794
C           69.96062369125725       -2.69882408416937       -0.57863935932378
C           71.15767297904885       -3.28568683901646       -1.09830179473230
C           72.12710281439763       -2.34193587914381       -1.00339349961893
N           70.18109544504814       -1.38593332966301       -0.23587068490584
C           71.51803175599018       -1.18487443187793       -0.43014724952204
C           72.23106465184391       -0.07027350782519        0.02371618414266
C           71.58084820572439        1.04627908221993        0.56287432561280
C           72.25891059028707        2.16446448538979        1.13652218254872
C           71.31642425851116        3.10989479104494        1.37571120540865
C           70.06910632171105        2.56973656671294        0.92723507107941
C           68.89954286826000        3.30428578554908        0.78356593191526
C           68.91655639878567        4.75476830106162        1.07611476122799
C           68.05334574627670        5.28967797359437        2.03402632939699
C           68.07151636328945        6.64748669863697        2.31378606148847
C           68.94432189299600        7.48834927500738        1.63648362189452
C           69.80177216586965        6.96500766105662        0.67820752582685
C           69.79185710931353        5.60656671372479        0.40033945180533
C           67.71379268984577        2.71821600121483        0.35900614636326
C           66.50462286641688        3.43454978735854        0.09000232958478
C           65.53536162178469        2.50529975495396       -0.10144933909825
C           66.15586152761404        1.22855021625365        0.05298904030297
N           67.49832891546225        1.36381657455921        0.26384333792880
N           70.23612692225078        1.27204631290083        0.50153222809061
C           68.76097819808700       -4.86058665653656       -0.53820437720074
C           67.85616340339978       -5.43320878675485       -1.43379047712853
C           67.83912221045952       -6.80541309868108       -1.63169157425856
C           68.71856529461525       -7.62247718686869       -0.93423800885737
C           69.61988961081151       -7.06080074058172       -0.03999252443507
C           69.64551497883286       -5.68827027382688        0.15526588973280
H           64.40006993631995       -2.55734852330566        0.71727092173553
H           66.27591860469852       -4.48231762028603        0.49127954257778
H           71.23630332259633       -4.28897571132130       -1.48429913831838
H           73.16536245780482       -2.41318321170414       -1.28422717842890
H           73.31893992884736        2.20823770369511        1.32774615031139
H           71.44570705216533        4.08746319925695        1.81079182214920
H           67.38008234788920        4.63229383538676        2.57281901148613
H           67.40155557476734        7.05084089102182        3.06496127744687
H           68.95578266489336        8.55017920476859        1.85473164784725
H           70.48193672704470        7.61828629116346        0.14299491532620
H           70.45210922847927        5.20250414777955       -0.35895615222958
H           66.41872791204901        4.50830655683132        0.05161924632518
H           64.49068870047330        2.65760991508009       -0.31897763562721
H           67.17819024760750       -4.79536613186423       -1.98988584745749
H           67.13641147041503       -7.23862943245473       -2.33479860946449
H           68.70185713711990       -8.69549907336264       -1.08788296677165
H           70.30682854023044       -7.69505651845060        0.50925480226212
H           70.34186349393725       -5.25260719907639        0.86309854794323
