132
 energy: -260.488789324124 gnorm: 0.000502793622 xtb: 6.5.1 (b24c23e)
Fe          13.44433585277937        0.05361837974994       -0.04644357879561
C           10.05486731480420        0.07988752193375       -0.19404929975007
C           10.70174377770398        1.29224402491492       -0.07813398153632
C           10.01618998373676        2.54692384954907       -0.00342065738179
C           10.96906918480287        3.50431232631444        0.08018648616780
C           12.23628935654322        2.83274742200662        0.04332610473041
N           12.05861327703147        1.47712193012129       -0.02656406960966
C           13.46137123502228        3.48970522813119        0.07627250818581
C           13.46898884847966        4.97289395980946        0.11492977476383
C           12.93795230893619        5.70335891851227       -0.94812804447898
C           12.94937167740811        7.09283491438407       -0.91289982688978
O           12.44471588915332        7.81302566014611       -1.94377456094684
C           13.48369888844510        7.75574206455583        0.19346538906531
O           13.47631079735281        9.12553468651877        0.20283256944410
C           14.00923799915940        7.02545540333110        1.25648123159368
O           14.51063223921215        7.74609561503461        2.30823944792038
C           14.00954647612649        5.63658212186462        1.21938243426155
C           14.67679883755928        2.82020686950872        0.06534802764292
C           15.94786893423511        3.48040691536629        0.03387728793581
C           16.89281211750539        2.50989032023970        0.03896186195163
N           14.84754732343755        1.45594588302650        0.07193932268295
C           16.19677614968335        1.26206924321961        0.06790981506181
C           16.85305529904419        0.02583671408302        0.11096750345140
C           16.17567439342254       -1.19954513898053        0.12662442331414
C           16.85098755562869       -2.45827620645081        0.17554787535614
C           15.89243027582040       -3.41396470205116        0.13471393399555
C           14.63302278958013       -2.73412469427643        0.06558413710895
N           14.82469153649529       -1.37214989635312        0.07016018408380
C           13.41417578379568       -3.38450001943434       -0.06117535434164
C           13.40157405133046       -4.86844473536543       -0.08839096606151
C           13.80442530028517       -5.59380465589445        1.03250743746221
C           13.78766761440677       -6.98357615941348        1.00507264304230
O           14.16810539761511       -7.69947807719881        2.09091732988551
C           13.37678675644962       -7.65152638299999       -0.14979282863063
O           13.37539846671835       -9.02151384888309       -0.14915031371035
C           12.97980557281224       -6.92602460515332       -1.27021472111433
O           12.59475129190349       -7.65091178061031       -2.36713993334303
C           12.98561827576476       -5.53695423967735       -1.24267657504295
C           12.20395223344471       -2.70896016897064       -0.17682190020725
C           10.93227779066754       -3.36349657113097       -0.28846573591288
C            9.99296990998766       -2.38987056660581       -0.33228319217433
C           10.69045733587639       -1.14357855209050       -0.23584301821188
N           12.04172418427003       -1.35021985926334       -0.14216368117704
H            8.97194189885738        0.08844171484104       -0.24775590325486
H            8.94363908808577        2.65914164809085       -0.01079611239999
H           10.83837645275826        4.57084714967011        0.16436494536068
H           12.53243062572679        5.19894489876591       -1.81562130345419
H           12.54455325754019        8.75658671658933       -1.73525264711084
H           13.87988005068866        9.42122818186779        1.03445967750906
H           14.84902438049706        7.15958917925243        2.99744568243094
H           14.40992881939466        5.07390613585502        2.05445324761574
H           16.08896267037920        4.54833566738222       -0.00133240444439
H           17.96570541862786        2.61392753774808        0.02076626588143
H           17.92104964970064       -2.57881912707793        0.22670269604015
H           16.01754840337290       -4.48432360557689        0.13589815088040
H           14.11395368820407       -5.08541512965630        1.93642078983465
H           14.08738437649065       -8.64380166256998        1.87756269682750
H           13.06822878422361       -9.32047030981957       -1.01991014622138
H           12.34170571950089       -7.06681895649959       -3.09399798432690
H           12.68693013775139       -4.97811387413881       -2.12173373543647
H           10.78791803735340       -4.43133751276740       -0.31609494780526
H            8.92188141017275       -2.48702648012307       -0.41212242674735
Fe          31.99353860973039       -0.05003625067389       -0.06022110997934
C           35.38316135809215       -0.05819784108660       -0.20458847839640
C           34.73667034986070       -1.27607434791963       -0.22721580901561
C           35.42304838834364       -2.53075150957501       -0.29406466799404
C           34.47082273288913       -3.49209973078275       -0.31792461501145
C           33.20313140797614       -2.82145458717957       -0.27944671131770
N           33.37991897163423       -1.46637261571288       -0.19637560727808
C           31.97849761231109       -3.47871125735628       -0.32181781717262
C           31.97112837007451       -4.95680418913457       -0.44934948412422
C           32.50748937028472       -5.56453901033611       -1.58452873559160
C           32.49552007993173       -6.94927861969452       -1.70458505883134
O           33.00559257353824       -7.55034602622795       -2.80666615527438
C           31.95481525340136       -7.73104756231125       -0.68212457656570
O           31.96151569644247       -9.09332372101958       -0.82572351826386
C           31.42350089820800       -7.12350198798746        0.45285371840719
O           30.91536760804679       -7.95649354925179        1.41447757803906
C           31.42428376314481       -5.73922352117455        0.57116441449109
C           30.76256522657868       -2.81269360522548       -0.26011349325223
C           29.49196281760036       -3.46546356984717       -0.36927495145892
C           28.54646926917864       -2.50191581915090       -0.25745139279086
N           30.59104526992700       -1.45798944288112       -0.10021245955045
C           29.24178465905069       -1.26521506833301       -0.08616561681322
C           28.58490053880076       -0.04175266670605        0.09445304403920
C           29.26166735977861        1.17419567643864        0.24900770341610
C           28.58545642352102        2.41923528718066        0.43672879439532
C           29.54360095866107        3.37360492923391        0.50734202844741
C           30.80364856285468        2.70609477957733        0.36687631806435
N           30.61290821872598        1.35226045762086        0.21709575561979
C           32.02247877019366        3.36725740372866        0.31966651010872
C           32.03415301779811        4.84443174477515        0.46286072119993
C           31.62362605349900        5.43606852886775        1.65719632840270
C           31.64028175929983        6.81969600484806        1.79027183315558
O           31.25267225798454        7.40581524707072        2.94894072473207
C           32.05873603828140        7.61606577546180        0.72281763798256
O           32.06001430940284        8.97680705515326        0.88147576083580
C           32.46312657379291        7.02431913928848       -0.47119097070940
O           32.85527590269835        7.87057838686905       -1.47468418027091
C           32.45742294668729        5.64133333616297       -0.60397972226622
C           33.23353301291808        2.70988801236043        0.13104812533302
C           34.50523633424029        3.37305880989478        0.09752582686549
C           35.44478936553990        2.41113432352618       -0.05760045408269
C           34.74745726494643        1.16195662059478       -0.10618712354485
N           33.39614599780064        1.35617167678318        0.00981863315611
H           36.46609167326466       -0.06047579315371       -0.25889635702293
H           36.49566630377929       -2.64067015155154       -0.31425567334754
H           34.60225896248134       -4.56126314765455       -0.35351116359993
H           32.91745082978721       -4.96693313981871       -2.38840712339309
H           32.90434497606086       -8.51120829940529       -2.70542503773991
H           31.55281564143943       -9.47950904449188       -0.03468882153532
H           30.57323581322935       -7.45020600961624        2.16289283271595
H           31.01968278100984       -5.27281477635667        1.46167712814104
H           29.35137642447150       -4.52256301764889       -0.52541244308061
H           27.47370757829372       -2.60363497756140       -0.29023061150465
H           27.51511740685619        2.53289296475671        0.49711356054912
H           29.41796817513660        4.43704570142429        0.62817439812707
H           31.30835012635785        4.82696992032553        2.49441650211106
H           31.33441293452669        8.36840695494073        2.84651335901219
H           32.37377966660023        9.37407027065776        0.05345672915117
H           33.11473371658408        7.37406508780800       -2.26184551384723
H           32.76189802394648        5.18747526343429       -1.53969460498417
H           34.64959263245559        4.43690046591714        0.19386721548551
H           36.51592647027480        2.51703818869243       -0.12461291405985
C           18.25324502103912        0.01477396604746        0.13369638898045
C           19.47971545840796        0.00511366563736        0.14661344551308
C           20.81894241494939       -0.00308048945754        0.15292853091634
C           22.05174279963564       -0.01062443157749        0.15462826818040
C           23.38617638337974       -0.01742161159066        0.15175075944521
C           24.61901018090526       -0.02450138519674        0.14440744137080
C           25.95822202644736       -0.03036915931498        0.13194469204788
C           27.18469647155453       -0.03434999504283        0.11739923428875
