234
 energy: -400.640014785784 gnorm: 0.000399059779 xtb: 6.5.1 (b24c23e)
Co          43.38740917862421       -0.00237513138180       -0.00709644776176
C           40.01392756833843       -0.02929883932881       -0.01024793039635
C           40.67812427178529       -1.19328887045911       -0.33253454530769
C           40.01856058735783       -2.41915317392032       -0.66570804822295
C           40.97702715266128       -3.37344220979128       -0.71813389859384
C           42.22267592297302       -2.72790842214115       -0.42207639089771
N           42.03369447922302       -1.38266297263859       -0.23317951072420
C           43.41123389320811       -3.40589929718723       -0.18584740974270
C           44.58807705952037       -2.74155180507128        0.12099912925595
C           45.83905303949746       -3.39701944755419        0.35943602628427
C           46.78503018668978       -2.42894347726538        0.40954056551753
N           44.76486026257692       -1.37684510101431        0.06778601557720
C           46.11148039754269       -1.18717542857351        0.19509150574486
C           46.77970570991884        0.02317897120066       -0.01038923812385
C           46.09123803111287        1.22291894012304       -0.21071844486953
C           46.73906282618442        2.47115825568511       -0.46222712879220
C           45.77770989414279        3.42453651307652       -0.40941842954642
C           44.54701827552449        2.75403915305693       -0.11528475005548
C           43.35865242801729        3.40287490639688        0.18292421972573
C           43.34670381511258        4.88150389972121        0.26897742246811
C           42.52491684134275        5.63358499154822       -0.57175135789309
C           42.51596183920203        7.01769369281966       -0.48796624786971
C           43.32102041515854        7.66646545350640        0.43854011192738
C           44.13983692959972        6.92513963947593        1.27958205727726
C           44.15654401739972        5.54120036007839        1.19461409729737
C           42.17835757759176        2.70393328547038        0.40197682638064
C           40.93141551162454        3.31840581620317        0.75259314557672
C           39.98651631007891        2.35080272368595        0.68788917175145
C           40.65965345557625        1.14486195725100        0.31273183362158
N           42.01048196284894        1.35827531123458        0.19901176060251
N           44.74439541008709        1.39270986744600       -0.05995720494960
C           43.41986824918212       -4.88759955675361       -0.26239139745088
C           43.21476961506161       -5.53067086506811       -1.48302726006724
C           43.22549866214020       -6.91573520898644       -1.55440863644069
C           43.43589100610115       -7.67212165778549       -0.40951996863968
C           43.63820516208465       -7.03813503694949        0.80878243205825
C           43.63288494265998       -5.65318061548656        0.88384563640479
H           38.93031144091881       -0.03948392656080       -0.00511954371536
H           38.95530945553202       -2.51931943463376       -0.81569857730834
H           40.86232103332736       -4.42691239021627       -0.91555245900367
H           45.96815093420231       -4.46301684468935        0.45215443419918
H           47.84813276340783       -2.53105926315821        0.55704755359192
H           47.79518363004148        2.58663100626423       -0.64574855919932
H           45.88080325221521        4.48770494745205       -0.55361438338890
H           41.90475116505878        5.12905394173502       -1.30429911998219
H           41.87762897325302        7.59251606197682       -1.14978278708786
H           43.31033428998624        8.74848560039471        0.50501023167414
H           44.76832127085249        7.42705511265660        2.00688997182774
H           44.78731779294318        4.96285993205907        1.86051874755251
H           40.80879083736689        4.35809060035479        1.00953480533864
H           38.92609591117132        2.42781998659744        0.86844955139750
H           43.06124054888485       -4.94032350157751       -2.37947553772670
H           43.06971653948987       -7.40635393450192       -2.50882324978830
H           43.44212394930585       -8.75471316509052       -0.46669335833823
H           43.80022878493609       -7.62484050173046        1.70622790512685
H           43.77999441667353       -5.15892003053803        1.83765524180235
Co          83.53297391188077        0.05813038325016        0.01445053547758
C           86.90606520496750        0.08157979124618        0.01243729259252
C           86.24318858665345        1.25866364544936       -0.26161044991607
C           86.90356901154060        2.49600957227714       -0.54705382844195
C           85.94572051500694        3.45225977894062       -0.56277705557019
C           84.69976169597795        2.79686686486111       -0.29057549489126
N           84.88789146887179        1.44513062711712       -0.15422761967313
C           83.51295719499544        3.46637773484749       -0.02291363371814
C           82.33699388747144        2.79142354758907        0.26377581423910
C           81.08801291549334        3.43734205016842        0.53618893363582
C           80.14109772277340        2.46895506521665        0.54977909546218
N           82.15827866788310        1.43024244120888        0.15421863151961
C           80.81202835444641        1.23684711147258        0.27893321107558
C           80.14117459350901        0.03781338630476        0.02187629428191
C           80.82685750368863       -1.15295621285026       -0.23354250262902
C           80.17620727194593       -2.38761072601714       -0.53891492847709
C           81.13618555597681       -3.34379502640960       -0.53250201523385
C           82.36896893045980       -2.68913837209993       -0.21242642830686
C           83.55767117865285       -3.35247701096105        0.05073323605047
C           83.56879659117921       -4.83350434504398        0.06419700622524
C           84.38878719635093       -5.54305033007988       -0.81447764034840
C           84.39577876228874       -6.92961835851701       -0.80143542688050
C           83.59044420611454       -7.62364133430557        0.09142703374071
C           82.77395625166886       -6.92493201707639        0.97036429886476
C           82.75936509142659       -5.53841413914228        0.95627392463178
C           84.73923900626234       -2.66554465566735        0.29925000949771
C           85.98591565349619       -3.29674206429669        0.61983497701996
C           86.93137032131946       -2.32770848074514        0.60126506980386
C           86.25908044107234       -1.10504118683885        0.28293449622154
N           84.90801674052246       -1.31196990419871        0.15971319148499
N           82.17386413745145       -1.33151514574403       -0.09446541870620
C           83.50578071230404        4.94981613969416       -0.04280184354459
C           83.71183512510699        5.63812139504925       -1.23843267853309
C           83.70308851810373        7.02486566666759       -1.25780560638200
C           83.49347049270661        7.73803724751185       -0.08535881296333
C           83.29001767821826        7.05899766690421        1.10821571839052
C           83.29363389822004        5.67217883897872        1.13131738417196
H           87.98968770616015        0.09040333421185        0.01855332969668
H           87.96681033044814        2.60120291303766       -0.69361411641839
H           86.06130086666727        4.51240114094349       -0.71978946666441
H           80.96037855787802        4.49848258116122        0.67505814233622
H           79.07887245287451        2.56582044782632        0.70682700945593
H           79.11931686176152       -2.49315837860218       -0.72396390318958
H           81.03069334608561       -4.39918387087983       -0.72422146562017
H           85.00885897069217       -5.00272587762838       -1.52112066023223
H           85.03254508209035       -7.47081471248320       -1.49246810606541
H           83.59909024976878       -8.70766662950659        0.10217562363751
H           82.14540189328056       -7.46239329843526        1.67175409845169
H           82.13038918750607       -4.99402413751700        1.65184178528108
H           86.10795411757729       -4.34753321616618        0.82709181329136
H           87.99178829811540       -2.41381432441598        0.77768778138374
H           83.86450849161530        5.08164733362186       -2.15643835821251
H           83.85986940841455        7.55072568684645       -2.19309946994127
H           83.48881243043033        8.82201807065340       -0.10185230883909
H           83.12854654809152        7.61181622898714        2.02702083750013
H           83.14618075667822        5.14283269752178        2.06605460930007
C           49.40462678890410        0.04132437830212       -0.02009520385692
C           48.18162370318762        0.03378532540376       -0.01761032542348
C           50.75214797018997        0.04662755275446       -0.01813670418157
C           51.97532584387761        0.04770410466014       -0.01562210857069
C           62.78905002207456        0.04715360764600       -0.02962633270506
C           61.56553737124336        0.04781221611554       -0.02328104423730
C           64.13615864807548        0.04391262222157       -0.03061432259767
C           65.35963229913027        0.03995632787887       -0.02614074597341
C           76.16880171459205        0.02396505212873        0.00852529913551
C           74.94562964586082        0.02332826617663        0.00717641723417
C           77.51629222020203        0.02597849317344        0.01208169120472
C           78.73926387278301        0.03060330265355        0.01598549409735
Co          56.77059237777726        0.04771873872950       -0.00998081558906
C           53.37606783482011        0.04867915049100       -0.00612104818737
C           54.05544642460550       -1.13344216025512        0.30670337806697
C           53.40174937357119       -2.35114156237025        0.66585716793841
C           54.35813404636099       -3.31188204337927        0.69016295902727
C           55.58937559279253       -2.67603152747838        0.33201845635628
N           55.40090891254137       -1.32336070753763        0.16931980849910
C           56.76807307216068       -3.35434513960810        0.05217145134303
C           57.94704689015445       -2.68558363074952       -0.24671627448715
C           59.17397653493119       -3.33082832262108       -0.60297424764939
C           60.13038044520741       -2.36989064187790       -0.61712144316085
N           58.13939315579613       -1.33015152688719       -0.11305884019931
C           59.48147712280927       -1.14329321933099       -0.27953771014893
C           60.16491961990873        0.04753064966378       -0.01122293449986
C           59.48615147170896        1.23599341266480        0.27832591471245
C           60.14049139350376        2.45730145252933        0.62497713943762
C           59.18195401760862        3.41540093894937        0.65553330931644
C           57.94903837918712        2.77552473358341        0.30926508640636
C           56.76860965419790        3.44995260223664        0.03173831467282
C           56.76166292269780        4.93032165010000        0.05246015842718
C           55.91068656737626        5.61873796720849        0.91852173173866
C           55.90685362846354        7.00506154948931        0.94168517790767
C           56.74461527895387        7.71975633818394        0.09625845041322
C           57.59015352005648        7.04210200605070       -0.77157412922090
C           57.60302035804180        5.65568779240867       -0.79235248355927
C           55.59178415690982        2.77712943157581       -0.27065395059507
C           54.36658350049214        3.41812849712745       -0.63917974420862
C           53.41171557370477        2.45533302444135       -0.65386307052963
C           54.05971568038522        1.23267778583954       -0.30165040444643
N           55.40129640585999        1.42305509640280       -0.12953773260457
N           58.13977950798819        1.42189635482464        0.15028969603927
C           56.76546302488271       -4.83481549602159        0.06542493432358
C           55.91835966416278       -5.54746474831514       -0.78466774532025
C           55.92037118673885       -6.93398259091451       -0.77435524096300
C           56.76086572248249       -7.62460158835073        0.08819045301974
C           57.60389447970793       -6.92267695124309        0.93906220406411
C           57.61063396522862       -5.53615186250649        0.92663916848165
H           52.34582792027497       -2.44483543523307        0.86225229613475
H           54.24915124024108       -4.35853134720354        0.92312045260433
H           59.27965139028515       -4.38295012313399       -0.81172571040628
H           61.18329181585941       -2.46843966592601       -0.82689959874976
H           61.19776347014626        2.55396809653719        0.81249136463867
H           59.29012506147640        4.46293277424026        0.88494308442584
H           55.26417087285349        5.06143914997065        1.58721666472794
H           55.24658118909159        7.52978380302526        1.62323087186235
H           56.73819122023574        8.80368183023600        0.11340341702590
H           58.24345158857005        7.59595030733223       -1.43658958900757
H           58.25479530452095        5.12786295022766       -1.47958925852005
H           54.26095336077994        4.46869924927209       -0.85566890392558
H           52.35997065651688        2.55096864307393       -0.87071620107288
H           55.27068459760439       -5.00942351354908       -1.46784257302161
H           55.26306507807159       -7.47767180508816       -1.44377494372183
H           56.75896036882011       -8.70864359028680        0.09719478319958
H           58.25954290349666       -7.45758477680323        1.61712044964930
H           58.26053870002985       -4.98902720364655        1.60039956858311
Co          70.15257919671333        0.03083436691858       -0.00338643617029
C           66.76017901458896        0.03718863603479       -0.01413437245060
C           67.43701833180729       -1.16179117923582        0.23450522671261
C           66.78212193038307       -2.39418759996263        0.53811610660856
C           67.73880147226494       -3.35477754373295        0.52628173664675
C           68.97131319843120       -2.70463728587816        0.19831272224655
N           68.78229273750922       -1.34558500912148        0.09322734867866
C           70.14924683405670       -3.36847970224228       -0.11431216151019
C           71.32589644817730       -2.68404494502575       -0.39110106132244
C           72.55007245514636       -3.30801525582098       -0.79118408833083
C           73.50662903532114       -2.34721480995219       -0.75858244143518
N           71.51854188794474       -1.33841142721741       -0.18658823433920
C           72.86069306788059       -1.14214666468494       -0.34704737276702
C           73.54495171287616        0.02436820211306        0.01040397142490
C           72.86533447405073        1.19067315078614        0.37785815974890
C           73.51654409610302        2.38835621318701        0.80249047277065
C           72.56141948471439        3.34912716308378        0.86110989460621
C           71.33355266584711        2.73422363478781        0.45766717335040
C           70.16007104847804        3.42665200185141        0.18887155934071
C           70.16468217840040        4.90492739553353        0.26208062664551
C           69.29444241788239        5.57341103704105        1.12477644871261
C           69.30253384325307        6.95823029189857        1.19364295559105
C           70.17312532386364        7.69193899039091        0.39914348280848
C           71.03930575562310        7.03453542745994       -0.46402234487652
C           71.03889683946609        5.64964528563596       -0.53149990318446
C           68.98400968061979        2.77177012146725       -0.15086239289501
C           67.76116286396622        3.43044670994592       -0.49672084130841
C           66.80262151316376        2.47268337432649       -0.54716827371419
C           67.44639642782066        1.23452285228014       -0.24403208055821
N           68.78803118511553        1.41297984352001       -0.06501540187524
N           71.52184085280474        1.39015660281367        0.23492005533336
C           70.15425638499096       -4.84810310371469       -0.15805178255463
C           69.30014867210733       -5.53549827627988       -1.02175826374272
C           69.31142527903384       -6.92148798025558       -1.06164767234271
C           70.16864966692877       -7.63704732170993       -0.23671340886556
C           71.01920045195683       -6.96049464178521        0.62715602687642
C           71.01633384089763       -5.57450975507160        0.66510061614102
H           65.72566654590955       -2.49603589372841        0.72751931906744
H           67.62928476171464       -4.41008281944209        0.71606447502991
H           72.65419662323575       -4.34683389464180       -1.05901198727336
H           74.55828075564075       -2.43406248851601       -0.97957588789891
H           74.57013176235489        2.47037182585099        1.01594709231763
H           72.66963421482767        4.38287988584998        1.14620833597217
H           68.62372115902288        5.00139232645673        1.75614753989029
H           68.62662549229526        7.46679038035254        1.87208324281932
H           70.17658624260311        8.77469723467128        0.45260085521296
H           71.71840013716266        7.60315883401299       -1.08956250450547
H           71.70611656643976        5.13846194692652       -1.21651531101801
H           67.65902915429534        4.48860705385057       -0.67439059113062
H           65.75143078522193        2.58046710779287       -0.76103327130956
H           68.63993134672290       -4.97783327798044       -1.67658700577028
H           68.64834890503667       -7.44526769439280       -1.74117431238314
H           70.17415359065619       -8.72068419475571       -0.26728092532099
H           71.68828894845311       -7.51486427741734        1.27582901857928
H           71.67226900609627       -5.04763135092511        1.34910791110737
