175
 energy: -297.127764601919 gnorm: 0.000417007600 xtb: 6.5.1 (b24c23e)
Fe          28.88289948736233       -0.01392536422963        0.00008952654323
C           25.49191666132216       -0.04157691204267        0.02136686146440
C           26.14306482549975       -1.24583325681293       -0.14833873810978
C           25.46300103466452       -2.49663503839837       -0.30009441716904
C           26.41944855200032       -3.45261446913100       -0.36066202444608
C           27.68321125151267       -2.78245133433260       -0.25315240823305
N           27.50060553381177       -1.43135736625449       -0.13506652230509
C           28.90589348426730       -3.44278272191989       -0.19288425417370
C           30.11645519676480       -2.77988328352558       -0.05784261078427
C           31.38634595701562       -3.44248607429222       -0.01481443878866
C           32.33095644785455       -2.47369655589127        0.04374740379545
N           30.28875599836505       -1.41583214055458       -0.02307461228263
C           31.63657918664004       -1.22420075037367        0.02627124162055
C           32.29423049685611        0.01223302141512       -0.00163612283484
C           31.61735934774705        1.23803122876828       -0.03574907069597
C           32.28975629549552        2.49744927120180       -0.10662262816461
C           31.32974611466070        3.45201173670046       -0.06111815117989
C           30.07421695210673        2.77032505646343        0.04940692973918
C           28.85385777400372        3.41621495049631        0.18156548216832
C           28.84021199831957        4.89687974112668        0.25885570471019
C           28.19727829086882        5.64998325475537       -0.72428809752488
C           28.19043163135665        7.03488176176628       -0.65281663221540
C           28.81832713636074        7.68277622218399        0.40232344741972
C           29.45678724435485        6.93993636480886        1.38611410898793
C           29.47150998566166        5.55508110706132        1.31500635070510
C           27.64213068326391        2.73581572620823        0.24616628111389
C           26.37333632366459        3.37951680818544        0.42866191880263
C           25.43132710615809        2.40844761351950        0.37919488059116
C           26.12660110733272        1.17323054289500        0.17769756270331
N           27.47971479137819        1.38262707107153        0.12408113834702
N           30.26756275767519        1.40890384217695        0.03219300268355
C           28.91456621307450       -4.92480619573842       -0.26651187405168
C           28.51637398464108       -5.57785876624806       -1.43308793844206
C           28.52941225673587       -6.96320615305943       -1.49844076307608
C           28.93354935303189       -7.71042014970476       -0.40045483550461
C           29.32807140033946       -7.06688020744066        0.76460969822221
C           29.32198523010627       -5.68171294313580        0.83231660656749
H           24.40777223680798       -0.05106176669643        0.03724647805095
H           24.39119796356863       -2.60903242617716       -0.34143351824520
H           26.29340484052805       -4.51890529439946       -0.45552729721104
H           31.52701869771183       -4.51068536097025       -0.04086163075848
H           33.40311130080114       -2.57956483779041        0.08341798996212
H           33.35812688905818        2.61934592176784       -0.18448439449702
H           31.45022477882516        4.52214827157223       -0.10421021852987
H           27.71652798103691        5.14539883201432       -1.55494227976083
H           27.69306939635246        7.61084160535012       -1.42531727201737
H           28.81014641940866        8.76543714120042        0.45783036336607
H           29.94605039363469        7.44125946889935        2.21386050387469
H           29.96103682844817        4.97539599010188        2.08964199485083
H           26.23513222198666        4.43769881765919        0.58045187024092
H           24.36068908879583        2.49980008358545        0.47127546483818
H           28.21084217199355       -4.99487992482676       -2.29474561538433
H           28.22309352142717       -7.46149355747992       -2.41153780762665
H           28.94102362527088       -8.79325134219757       -0.45264782502375
H           29.64214572031947       -7.64608260939234        1.62585587478496
H           29.62050242618840       -5.17968724749301        1.74585759210201
Fe          55.73002509197616        0.05457607363424        0.02741562989332
C           59.12107803538486        0.07467648088280        0.04122967658179
C           58.47181522934285        1.28623712011581       -0.07586423515953
C           59.15375369017168        2.54084187538007       -0.18052196662632
C           58.19888897313143        3.50010626763087       -0.20126424301834
C           56.93426257506709        2.82851106256995       -0.11494169068371
N           57.11471567917255        1.47348792864527       -0.05080705070878
C           55.71357511377676        3.48857025304714       -0.02131564625540
C           54.50240798801805        2.82352216346532        0.09654902553931
C           53.23439555504037        3.48623411140770        0.17688510235304
C           52.28776486064314        2.51781196247222        0.19685494168104
N           54.32708418085042        1.45961206650385        0.07291495861450
C           52.97905185776326        1.26890139935872        0.11911448027856
C           52.31884684480521        0.03639115546854        0.03484742416965
C           52.99301064461399       -1.18828214274523       -0.05241611666862
C           52.31720219671402       -2.44197595331838       -0.17477858483357
C           53.27496459661945       -3.39981611970312       -0.17485603092808
C           54.53269125696673       -2.72644592398913       -0.04105109906197
C           55.75238718650527       -3.38007588937676        0.05233008915948
C           55.76466323534480       -4.86287112057083        0.05285011370724
C           56.39632148427775       -5.56266776682927       -0.97596785859236
C           56.40206087693409       -6.94937263473130       -0.97908267660523
C           55.78457151484631       -7.65238188066617        0.04650814773137
C           55.15775711829080       -6.96284345413415        1.07554254220439
C           55.14386041204146       -5.57609481070366        1.07893881925433
C           56.96583352734975       -2.70578209738785        0.14319922103125
C           58.23382806551434       -3.36002642053184        0.29014127304623
C           59.17764033709037       -2.38945729485778        0.28531949436141
C           58.48436776506933       -1.14467259689544        0.14486271986591
N           57.13063330514905       -1.34870468940904        0.08528837684656
N           54.34257336357644       -1.36510266406896        0.00342957644280
C           55.70784635758554        4.97233968653262       -0.04363900450096
C           56.09515589528242        5.66204738821967       -1.19270131057507
C           56.08366049529350        7.04874420594676       -1.21357611877976
C           55.69213219679416        7.76078523900639       -0.08798992583646
C           55.30912599567401        7.08063954261079        1.05998816858470
C           55.31352951272684        5.69394125299762        1.08324523885488
H           60.20527740036672        0.08143498033556        0.05423490600461
H           60.22562754045226        2.65283419889255       -0.22107299397653
H           58.32640109267722        4.56908074295548       -0.25528266617916
H           53.09615663478415        4.55480910161650        0.20064514349413
H           51.21612356788030        2.62412444584477        0.24783302669169
H           51.24816579540980       -2.55793318930906       -0.25247736766199
H           53.15160813410910       -4.46686530320333       -0.26287541092581
H           56.86914872301142       -5.01445596250883       -1.78319864485194
H           56.89030291365578       -7.48339797233549       -1.78673141783526
H           55.79185665573254       -8.73646994241758        0.04376287493765
H           54.67688887591419       -7.50754489511808        1.88048867102359
H           54.66321378331416       -5.03850072832627        1.88868650301374
H           58.37008300570611       -4.42463329200898        0.38992946269592
H           60.24834683725911       -2.48717603124430        0.36974685916267
H           56.39095939763071        5.10647119117215       -2.07560275315291
H           56.38105689035924        7.57561759438213       -2.11347761898786
H           55.68551616583613        8.84473947275639       -0.10545914032986
H           55.00523212880392        7.63238986510150        1.94264661978481
H           55.02385809591178        5.16335516786702        1.98338214493774
C           34.91820635580157        0.03013128717836        0.00921294581217
C           33.69382628006722        0.02284773272609        0.00088316341242
C           36.26311304022619        0.03502484445429        0.01379235093521
C           37.48771572206689        0.03581468746264        0.02220905360047
C           48.34996444120092        0.01813623945801        0.01937615265109
C           47.12536504372010        0.01565873253202        0.01799354484113
C           49.69484401130047        0.02239664424435        0.02457875674404
C           50.91925337653779        0.02855147552701        0.02902966507453
Fe          42.30653546107233        0.02589279603997        0.02664441923490
C           38.88639481129044        0.03395561859792        0.02810824856075
C           39.55254231195363       -1.19709266512278        0.09831366153578
C           38.86843644355218       -2.44776497616137        0.19454078548119
C           39.82088746004315       -3.41167480669870        0.17614814276340
C           41.08117443122983       -2.74226516296848        0.06014300142329
N           40.90101737981163       -1.38047506230240        0.03987347382766
C           42.29835009693788       -3.40304625700105       -0.04010623464301
C           43.51894463755354       -2.74508945304473       -0.11393749348993
C           44.77583263986294       -3.41539234504431       -0.25813949910760
C           45.73276723716916       -2.45584415717680       -0.24217134732172
N           43.70559947787368       -1.38602439330013       -0.04066424450828
C           45.05477197541462       -1.20665868180614       -0.09635621042579
C           45.72668656496375        0.01765489687938        0.01954650623399
C           45.06087890255011        1.24504205146960        0.13964334035403
C           45.74551944582522        2.49057687337706        0.28516970155562
C           44.79324813286406        3.45453359477303        0.30932332494422
C           43.53241323750264        2.79076359551033        0.16902907674791
C           42.31475706253266        3.45504897623939        0.10059543923412
C           42.31874776680603        4.93789952107362        0.13113869306106
C           41.72753435322756        5.62375806930358        1.19253640391294
C           41.73671101952576        7.01021410154035        1.22098886295471
C           42.32705565284425        7.72583875207382        0.18820423511349
C           42.91321752554635        7.04961559532548       -0.87311836876853
C           42.91409515295959        5.66314741765720       -0.90141665449583
C           41.09389568047239        2.80026476630208        0.00337845198989
C           39.83654958544230        3.47551096473514       -0.11115215430247
C           38.87974383739390        2.51594682328062       -0.13193461088897
C           39.55813287756615        1.26205718425829       -0.03824292396229
N           40.90743056911009        1.43931962497239        0.02185053406506
N           43.71230296864353        1.43096370797047        0.09201724206840
C           42.29359820499699       -4.88613382388214       -0.07312926033031
C           41.70842707244758       -5.56494189901006       -1.14227024789248
C           41.70849304775052       -6.95133369047032       -1.17450106281319
C           42.28300150397583       -7.67359584469050       -0.13745865424217
C           42.86273724670775       -7.00420628169524        0.93163999936994
C           42.87342923523502       -5.61778119162573        0.96346573055367
H           37.79856929568772       -2.55864225436316        0.26713868672748
H           39.69204974291829       -4.47978257068178        0.23963496986612
H           44.89949997375309       -4.48091760033674       -0.36232142385890
H           46.80197562373783       -2.56867115720214       -0.32139636956684
H           46.81559661621719        2.59846148231257        0.35907264528220
H           44.92309435150948        4.51893630120187        0.41716814511028
H           41.27466242801876        5.06492430120982        2.00385656400063
H           41.28072839302540        7.53400866808468        2.05374747996294
H           42.33033632544485        8.80968514393139        0.21043215593803
H           43.37248330993241        7.60430822061088       -1.68377193945074
H           43.36377817031151        5.13530223361736       -1.73495976158811
H           39.71212001325457        4.54423335723764       -0.17286226128582
H           37.81036774385800        2.63177152501866       -0.20411847509094
H           41.26720229997149       -5.00066681555351       -1.95619553176639
H           41.25780203513814       -7.46976167560671       -2.01344140994611
H           42.27876171737810       -8.75738681386084       -0.16237215644889
H           43.30923064318019       -7.56425828394193        1.74571437003357
H           43.31874478647615       -5.09512556774357        1.80257743287851
