115
 energy: -212.635459899398 gnorm: 0.000396406561 xtb: 6.5.1 (b24c23e)
Cu          16.12797790052825       -0.01693255244810       -0.02189251956878
C           12.70403134548285       -0.03662623341621       -0.04991932621586
C           13.34548324652898       -0.90583374827143       -0.92092343835280
C           12.68410454251628       -1.80446713406535       -1.82711371858984
C           13.65336480300149       -2.47517306090944       -2.49794611974822
C           14.91466646117125       -1.99225927499007       -2.00679802709156
N           14.69694337059296       -1.04157197000428       -1.05239487994200
C           16.15885830661041       -2.42931121841372       -2.43824406870239
C           17.39096147243198       -1.98349977603020       -1.98376849436822
C           18.66061054416012       -2.45987428134799       -2.45295946147292
C           19.61540124410796       -1.78029433543408       -1.76811038435128
N           17.59070385622320       -1.02659553363905       -1.02525765314526
C           18.93477200532036       -0.88559322825005       -0.87703028476041
C           19.57430147125980       -0.00009629947722        0.00913646452972
C           18.91063397468463        0.87883821591380        0.88378052258313
C           19.56617538567462        1.78024857077117        1.78674524468855
C           18.59246332324550        2.45042752435263        2.45404004386991
C           17.33622632320226        1.96198760807403        1.96160737043451
N           17.56267566896426        1.00694076717339        1.00726114507466
C           16.09180479020631        2.39687271960930        2.39261299074625
C           14.85986866474260        1.94707695122026        1.93959835262856
C           13.58525179075247        2.41838030759534        2.40709509632039
C           12.63482107118917        1.73498103367452        1.72228017012438
C           13.32113600213431        0.84074459097437        0.83041492980207
N           14.66865530663909        0.99144867390676        0.98444365265960
H           11.61901487443727       -0.04297274075960       -0.05875032059951
H           11.61380983517844       -1.89771647350558       -1.92534884412554
H           13.54117919479720       -3.23120028316349       -3.25933715432589
H           16.16966218596435       -3.19552471272960       -3.20670288893719
H           18.79064900894383       -3.21748676435324       -3.20970156330764
H           20.68721415454081       -1.86786547244829       -1.84977808010939
H           20.63545926166858        1.87796959498667        1.88790583047750
H           18.70117941237612        3.20895329854785        3.21323343094676
H           16.08136108894103        3.16439346838132        3.15976669521125
H           13.45190349095155        3.17625695850560        3.16321490378267
H           11.56206625990097        1.81728349482871        1.80167174652346
Cu          43.13691492284277        0.01138312379878       -0.01671983904054
C           46.56053354755554        0.04909119746789       -0.00398127773381
C           45.91798699279839        1.27767891134266       -0.06095052403060
C           46.57809444885723        2.55344002834349       -0.11513205687062
C           45.60791484711991        3.50026472116292       -0.15441450315899
C           44.34721336554079        2.81089432903278       -0.12424783638757
N           44.56632527905790        1.46509563479202       -0.06992480948848
C           43.10241071070678        3.42338933069310       -0.14235856902036
C           41.87106481625290        2.78579002120322       -0.11212416644441
C           40.60055475782065        3.45289359605519       -0.12949100560750
C           39.64681777914739        2.48787325286342       -0.09374061030486
N           41.67299620451473        1.43222673590724       -0.06506176241982
C           40.32873892381483        1.22623310691103       -0.05505731401743
C           39.69135690534714       -0.02636380040181       -0.02557822328457
C           40.35558930414267       -1.26477981743273        0.00584144500945
C           39.70124123744533       -2.54104937246130        0.04012553282702
C           40.67568514364442       -3.48494246585552        0.08115050138626
C           41.93135860671394       -2.79012845571666        0.07156345878201
N           41.70396112909206       -1.44125888147776        0.02304666551522
C           43.17624850998117       -3.40035026450358        0.11052487992911
C           44.40732192499524       -2.76050245194229        0.10115416142935
C           45.68258406322929       -3.42202094198727        0.14089274811950
C           46.63201948331362       -2.45415690487797        0.10820380337607
C           45.94451924177670       -1.19320036705259        0.04858152662580
N           44.59722851537432       -1.41022152357470        0.04768400356022
H           47.64553571245349        0.06089734494158       -0.00006740837452
H           47.64826574815678        2.68975356003348       -0.12129872213038
H           45.71908394002886        4.57242260723706       -0.19937834924115
H           43.09021629243770        4.50777958317543       -0.18331277723165
H           40.46951928510369        4.52299773174886       -0.16516495743989
H           38.57486302965139        2.60632486160334       -0.09456532198969
H           38.63213846421927       -2.68285840184477        0.03448588762007
H           40.56793370528150       -4.55767093985767        0.11588397645671
H           43.18778190173702       -4.48473244649009        0.15193701384027
H           45.81686776648123       -4.49146225312544        0.18736659069821
H           47.70485178938273       -2.56689821623882        0.12232564147808
C           22.20210557547196        0.01080268516195        0.02453329580808
C           20.98048611712017        0.00680920171286        0.01924885140476
C           23.55218350884839        0.01131047389137        0.02536853189308
C           24.77402857938487        0.00833942005773        0.02033021779009
C           35.71101706792262       -0.06039025766238       -0.02042688075932
C           34.48975692889201       -0.06435802203527       -0.01626798304701
C           37.06240482737284       -0.05380231520062       -0.02270613103053
C           38.28349731242503       -0.04093369364998       -0.02627542592722
Cu          29.63123454715231       -0.02931721664472        0.00331029988559
C           26.17970592650980       -0.00042243044650        0.01509346355864
C           26.84215082342524        0.92773021244637        0.83912277738860
C           26.18569537379796        1.88399597863902        1.68309313131278
C           27.15915262819162        2.59601890310557        2.30642922839955
C           28.41520510185011        2.07795649850920        1.84560103215173
N           28.18938919436373        1.06297673002823        0.95564053055947
C           29.66028881032780        2.54318567002607        2.24173112900520
C           30.89455802036258        2.07127104866088        1.82000798326532
C           32.16228435798247        2.58399802853740        2.25419190827025
C           33.11940124178051        1.85819316077767        1.62178043893049
N           31.09703172938945        1.04808450873786        0.93415880170549
C           32.44137399867937        0.89817701672936        0.79914350268789
C           33.08241629181517       -0.05765866713242       -0.00907773948706
C           32.42064288608741       -1.00427352880767       -0.81109184303296
C           33.07711888242869       -1.97599139526513       -1.63745182352087
C           32.10379975355680       -2.68632258474250       -2.26276238011430
C           30.84770167368221       -2.15191559871151       -1.82087517096762
N           31.07312870371140       -1.13211693332175       -0.93671174502891
C           29.60269797723390       -2.60136138665206       -2.23559552845352
C           28.36849506755341       -2.11380030806441       -1.83232149127833
C           27.10093600859910       -2.60915194634033       -2.28648000480397
C           26.14373158130805       -1.88123384049992       -1.65641673293085
C           26.82163578551706       -0.93796622526631       -0.81475834885802
N           28.16562574569368       -1.09590929421486       -0.94003380282941
H           25.11636468320405        1.98772224908240        1.77755227836457
H           27.04983872386649        3.40155669680745        3.01545027443780
H           29.66995000202497        3.36132058529267        2.95491658556710
H           32.28985416752439        3.39499921730967        2.95386784282243
H           34.19091723001156        1.95339705543888        1.69840765984267
H           34.14642200277105       -2.08913399311607       -1.72067559388597
H           32.21315113852848       -3.49996666764775       -2.96248372741527
H           29.59328366135330       -3.41920720942850       -2.94914228562215
H           26.97339409638765       -3.41150935843849       -2.99606575378183
H           25.07224833080745       -1.96604032599935       -1.74500753738660
