132
 energy: -242.045710188634 gnorm: 0.000825991200 xtb: 6.5.1 (b24c23e)
C           11.08024973306112       -0.09684595926781       -0.08764882507616
C           11.66138546898274        1.11985206830557       -0.42072132665844
C           10.98443034991274        2.34825037342432       -0.66225002833309
C           11.92324733106532        3.29466756206990       -0.96240904009193
C           13.20368000705370        2.67230046361588       -0.92286730184310
N           12.99535596780130        1.36530166708655       -0.58552084476882
C           14.45090238724744        3.26326525424111       -1.15356671410682
C           14.44591083852217        4.70130278487046       -1.52193836164497
C           15.06584102095726        5.64178987738266       -0.70413128504884
C           15.05369937505779        6.99346846786960       -1.04583890893624
C           15.72366009541542        7.94928717710868       -0.12783493851625
O           15.65776828301025        9.22354854301554       -0.54015087819591
O           16.27855252203852        7.63533823459965        0.89375561886039
C           14.42249966117632        7.41325755008494       -2.21669080265644
C           13.80694803384306        6.47835265885439       -3.03405723306560
C           13.81461365563445        5.13367853672156       -2.69052428371392
C           15.68082108212486        2.60916161567045       -1.05752727186067
C           16.95829492625572        3.23618726645681       -1.34658215191759
C           17.90162228197195        2.29497836026307       -1.13741344106802
N           15.86821800208130        1.30797133218710       -0.70259564143510
C           17.19861238624403        1.09299731242849       -0.73136868774340
C           17.86553245853342       -0.10789480022195       -0.41399528445712
C           17.25940825994159       -1.32536496949431       -0.04926900009825
C           17.93450029226195       -2.52820096842658        0.28885908500957
C           16.99115429630656       -3.47462752222407        0.57843654825789
C           15.70910854944515       -2.87926285146443        0.41813549394552
N           15.92367354828685       -1.57919561902461        0.04355106688720
C           14.46200722967485       -3.47688572688861        0.62818406921059
C           14.46333240319469       -4.90849902043548        1.01767431226589
C           15.00442766455902       -5.87642871381083        0.16856399812326
C           15.00137395824663       -7.21655240436554        0.53062868222998
C           14.46218638530721       -7.60691932411931        1.74490743509466
C           13.92100758944117       -6.64874322666736        2.60370472992612
C           13.35505245932395       -7.10659290284551        3.89785199913717
O           12.84954880761880       -6.11421697647821        4.64421933739265
O           13.33903910532563       -8.25398768198922        4.26386895893867
C           13.92123122081306       -5.30415870816571        2.23914030675918
C           13.22970233934034       -2.82663089551131        0.50483753788165
C           11.93968390676439       -3.47553473062742        0.68332188537624
C           11.00380350566117       -2.52587948925646        0.48460148331108
C           11.72009927287600       -1.30101600258252        0.17433091598926
N           13.05766332563742       -1.52193446491784        0.18675830718973
H            9.99661002378555       -0.09698408810950       -0.02696626991359
H            9.91571261133002        2.47908612094189       -0.60360137996941
H           11.75060218896423        4.33558581703248       -1.18315274354591
H           13.73426574786895        0.68079240152818       -0.46436976484747
H           15.55132188134090        5.33506657925752        0.21586171692909
H           16.11519141009388        9.78170648624387        0.10960250718424
H           14.41580843989295        8.46356358944466       -2.48168834498037
H           13.31744896450643        6.79711441317776       -3.94742963470192
H           13.34107609118867        4.40663852287301       -3.34095647080131
H           17.09208028489683        4.25424742955546       -1.67461568446741
H           18.97104802804654        2.37771477078704       -1.24712615004427
H           19.00614129868328       -2.64324742075403        0.31075456226459
H           17.16505298320508       -4.49249341404465        0.88720184327694
H           15.18502496404781       -0.90363892081133       -0.12281278128171
H           15.41423950112991       -5.57584899705454       -0.78941051623470
H           15.42108483174225       -7.95681533181216       -0.14147279100037
H           14.45220704682590       -8.64908159767647        2.04344463343175
H           12.50364125212508       -6.49414012591728        5.46836694540877
H           13.51310347654812       -4.56087244632975        2.91380520107341
H           11.79443430475239       -4.51825664565103        0.91571107621270
H            9.92977899638078       -2.61639819771782        0.52889324397251
C           33.82505712165245        0.04885647785716       -0.15418692158858
C           33.24509633616373       -1.19629134167152        0.05185316165875
C           33.92464111624391       -2.41541743644231        0.33004194666103
C           32.98655030621144       -3.40051068880334        0.45999971078623
C           31.70385843897899       -2.81646988971749        0.25491874929705
N           31.91029428512744       -1.48677676259575        0.02084230884066
C           30.45626725090551       -3.44898138782702        0.30064654908967
C           30.45968735116098       -4.91150048002627        0.55264062409330
C           29.82835317897114       -5.43612772171424        1.67704907367895
C           29.83077716216312       -6.81018098593939        1.91318301346653
C           29.14186834994204       -7.30788826132565        3.13082423334943
O           29.19095653488125       -8.64096713645421        3.26718683714251
O           28.58506244414116       -6.60296461296280        3.93285142353368
C           30.46676468914454       -7.67231228466577        1.01999816863685
C           31.09613565418826       -7.15265653343525       -0.10016710484046
C           31.09542485716392       -5.78451535336211       -0.33338051512113
C           29.22551031779274       -2.81153831717183        0.12927225778063
C           27.94724730803770       -3.50065900466869        0.12837249803862
C           27.00400201684707       -2.55576236068399       -0.06338865564989
N           29.03814554019318       -1.47897506344210       -0.07960254186258
C           27.70750417840061       -1.29355697398917       -0.18863404128006
C           27.03957689405881       -0.06816250557297       -0.38833493745787
C           27.64405103256585        1.19297269948679       -0.55135942913427
C           26.96769622074433        2.42962287461137       -0.72466509378371
C           27.91016247057174        3.41206830398602       -0.85140169442440
C           29.19285715965784        2.80249266486803       -0.76809618269861
N           28.97961784568725        1.46256724250182       -0.57945038617638
C           30.43988687453036        3.43219652402687       -0.83701187630192
C           30.43701922117594        4.89759679257936       -1.06930146261467
C           29.88000280920818        5.43131072443770       -2.23359042539673
C           29.87944915133802        6.80184656945055       -2.45380818492877
C           30.43125064672490        7.65659763991101       -1.51449008197208
C           30.98947268676781        7.13574874876505       -0.34597652482656
C           31.56902851041747        8.08501765203088        0.63730070430989
O           32.08609860440397        7.48758980618645        1.72066041343115
O           31.58681385300611        9.28117445655439        0.49712705883203
C           30.99258264253333        5.75995978020860       -0.12611636809296
C           31.67301900404350        2.78596485024497       -0.70166940830487
C           32.96270095341085        3.44816871483550       -0.82483215817203
C           33.89955686080116        2.49839006173169       -0.63133111038511
C           33.18398039739260        1.25556682793715       -0.40084225746023
N           31.84582744841090        1.46519121755646       -0.45974651075339
H           34.90947021721139        0.07206666243221       -0.11482134905964
H           34.99463995646245       -2.51129763110383        0.42327551143383
H           33.16156848734799       -4.43959938041408        0.68732856547980
H           31.16944028392741       -0.81320820299084       -0.14259799219143
H           29.33984639691917       -4.78000400125188        2.38908070029810
H           28.72052327588722       -8.88459785301502        4.08100989079606
H           30.46581298502921       -8.73979514241320        1.20410577552805
H           31.58969247025458       -7.81690030725497       -0.80059488281664
H           31.57687137693908       -5.38714314486066       -1.22003304372668
H           27.81201617394735       -4.56346950417969        0.24672224395139
H           25.93427244935991       -2.67564432377928       -0.12486856388633
H           25.89588691555987        2.54390163706756       -0.74218339553054
H           27.73537655792697        4.46775749520593       -0.98015219590234
H           29.71941146718792        0.77766410145561       -0.46418518376762
H           29.46055407639228        4.76365130499646       -2.97796719800627
H           29.44779278216372        7.20063016940738       -3.36476335170690
H           30.43864958529290        8.72947573569356       -1.67017189961602
H           32.44021382216270        8.17278674626253        2.31054478010194
H           31.41400242567626        5.35956254033036        0.78829708970880
H           33.10675022144213        4.49418816845351       -1.04265532132815
H           34.97372619373711        2.59659931521326       -0.64468119471878
C           23.06689219075279       -0.10415999958389       -0.46349714918827
C           21.83852205355494       -0.10413259943017       -0.47186699667997
C           20.49448426561487       -0.10531796904235       -0.46679365206680
C           19.27054875926779       -0.10325820625374       -0.45135490453736
C           24.41082452010336       -0.09777541109033       -0.44671072342880
C           25.63465804840767       -0.08996181958306       -0.42439713749640
