138
 energy: -227.585169906695 gnorm: 0.000986224354 xtb: 6.5.1 (b24c23e)
Fe          16.34120636779406        0.05121962302083       -0.02517940266274
C           12.96213050905177        0.13490320652156       -0.12165375434888
C           13.59835859104402        0.90387892024554        0.83195717475568
C           12.91313533356834        1.70863959716377        1.79691666363790
C           13.86288754955226        2.40826332139777        2.46322854868778
C           15.12622295300840        2.04308720976192        1.89072045073589
N           14.95408315226807        1.07841724879639        0.93531083678887
C           16.33797719635304        2.64926997605936        2.21464458166020
C           16.33841553431082        3.78274800144635        3.16288988020501
C           15.57107022664092        4.92513624876736        2.91421208673012
C           15.58266143786603        5.99009205294629        3.79397967992788
C           16.35345907541038        5.94030752900568        4.96267164086791
N           16.37194018502506        7.05253820165294        5.78797744054615
C           16.75987891694509        6.91609910203178        7.18488499472908
C           17.12393328978071        4.80115425668354        5.21602888417632
C           17.11424337396517        3.74327072518071        4.32389200269480
C           17.54730628563587        2.23695991431487        1.66699178798634
C           18.80162279410209        2.88738940593718        1.90275793792690
C           19.75335943688849        2.13456650571090        1.29822837574169
N           17.73053899900702        1.12489952974015        0.88108336644351
C           19.07708677539042        1.03434541959708        0.68754697330532
C           19.74072040751654       -0.03450214293876        0.07144795963818
C           19.06339991761751       -1.08745773036237       -0.55718027391503
C           19.72316004059392       -2.22058814009362       -1.12448097486118
C           18.76740597522067       -2.95612761181265       -1.74367611034030
C           17.52897875404379       -2.25776160348552       -1.56757084048076
N           17.72065040381105       -1.14309580150716       -0.78597047848485
C           16.33318949867154       -2.62286029176990       -2.17388823803678
C           16.32771752321050       -3.76596783040371       -3.11057145104897
C           17.16316566797039       -3.77800706327086       -4.22988469579118
C           17.15666967502378       -4.83979266145735       -5.11739908030054
C           16.30839859140257       -5.93036279272205       -4.90153650483907
N           16.30029868803904       -7.04324109129968       -5.72686490693268
C           16.75011996238771       -6.92572043063120       -7.10709606086666
C           15.47962978230134       -5.93049417366703       -3.77219735185201
C           15.48482446306199       -4.86135289757389       -2.89740733235180
C           15.13929064739852       -1.94341468977602       -1.93994408393970
C           13.90161145002733       -2.23505986275452       -2.60320991438473
C           12.95382800941040       -1.45795863782183       -2.02569133818070
C           13.61572933430050       -0.68436080641959       -1.01980153341091
N           14.95854695804370       -0.95991878514507       -1.00674700290214
H           11.87930570054164        0.17322352843518       -0.16463977384648
H           11.84325358191392        1.72335479805432        1.93317233989178
H           13.73059897522972        3.10706373047269        3.27338846416036
H           14.98036853066339        4.98506426614843        2.00664845422361
H           14.99416016983810        6.87638810639145        3.58132044785721
H           15.56504879168658        7.65115219851919        5.66381892169175
H           17.82149804312036        6.67610227943418        7.25646723753787
H           16.17907073596853        6.13604569525177        7.69010782974176
H           16.58444192668261        7.87210838046577        7.67787412549053
H           17.73418093911355        4.73484205262590        6.10834396962279
H           17.70201787198025        2.85803765821694        4.54120839520801
H           18.92869685698892        3.80708489516937        2.45025124317684
H           20.81842513911634        2.29784866107073        1.26117760602277
H           20.78069232996737       -2.41656364480352       -1.04894642480338
H           18.88232526875211       -3.89012817670777       -2.26923718350729
H           17.81057161415898       -2.92885576754468       -4.42017186459966
H           17.81392422221237       -4.81396712405202       -5.97781318184272
H           15.45489434623958       -7.59374129941793       -5.63880801604297
H           16.23889613228674       -6.10887808096167       -7.62877547430554
H           16.53470946828602       -7.86674189872394       -7.61283543760127
H           17.82653277605610       -6.75205545255581       -7.13620874541095
H           14.83073367689775       -6.78013910793256       -3.58751286163233
H           14.84542140765679       -4.88064715310411       -2.02167276093826
H           13.78479156962059       -2.93945517997222       -3.41088389628082
H           11.89991378477357       -1.40081708663007       -2.24807509199683
Fe          32.30407231603166        0.01309369062471       -0.05567304433387
C           35.68323412905811        0.08816490349503       -0.15770817775476
C           35.04683593360404       -1.00997708435489       -0.70040658599079
C           35.73184990971714       -2.12728337071709       -1.27544083952527
C           34.78196988008964       -2.92988208656421       -1.81307406374140
C           33.51878276728356       -2.29126709029333       -1.58159149191197
N           33.69110679178475       -1.14852683534664       -0.84845921369584
C           32.30701766842442       -2.73924754228009       -2.10274484085099
C           32.30644090419774       -3.91193514792111       -3.00206282800189
C           33.07342356075982       -3.91836786798805       -4.17138471447397
C           33.06207053971612       -5.00950067171687       -5.01848833290309
C           32.29198357183186       -6.13949340523794       -4.71436139252448
N           32.27405990680459       -7.18801483141423       -5.61927843697571
C           31.88752935605272       -8.52162613811259       -5.18046826342392
C           31.52165913076969       -6.13819348453327       -3.54729743524029
C           31.53102140167605       -5.03650298706909       -2.70984461310277
C           31.09780883666938       -2.11459824648006       -1.82001157367522
C           29.84353813747259       -2.48606414172922       -2.40383249649677
C           28.89185843503205       -1.73175301473195       -1.80110420185046
N           30.91462393310710       -1.10526967718373       -0.90589640052073
C           29.56816296445583       -0.89603416285680       -0.86033734034885
C           28.90447068395751       -0.06149307037098        0.04825081653482
C           29.58177205367118        0.78126662602854        0.93908293940566
C           28.92208145107996        1.58226528034308        1.92106937587690
C           29.87787454940037        2.34708036476279        2.50363328960065
C           31.11634559425114        2.02243703137254        1.86080517376946
N           30.92464000630158        1.01621660461327        0.94385785320887
C           32.31224037092468        2.69365367978756        2.08488624904928
C           32.31766289799637        3.85737619819286        2.99585309956264
C           31.48266237554907        4.95255976219504        2.76282902451117
C           31.48882281995985        6.05035530689413        3.60540620997043
C           32.33622633099411        6.07740893532903        4.71744789181966
N           32.34366011486863        7.12536286529610        5.62374043590329
C           31.89268893480881        8.44657469960588        5.20886694345448
C           33.16477032199600        4.97519560383676        4.96437733697585
C           33.15993167564331        3.88824600887757        4.11183697522728
C           33.50621446544064        2.31670582868371        1.47325854142869
C           34.74405449593294        3.02727971588065        1.61347973720034
C           35.69180760054058        2.29384110994347        0.98139048578122
C           35.02975482774179        1.14353409094157        0.44579996610590
N           33.68686474877278        1.19132515647425        0.71713522218830
H           36.76606984237785        0.12157035318121       -0.20443044074812
H           36.80168345041071       -2.26371562192802       -1.25999053392737
H           34.91403701993508       -3.87292463808904       -2.31845509659261
H           33.66367321779263       -3.04553863948773       -4.42818283835753
H           33.65028699945977       -4.99528331158329       -5.92999004492330
H           33.08091343910318       -7.19708415078357       -6.23069832313095
H           30.82607380948100       -8.53994668581054       -4.92998112505289
H           32.46914386756808       -8.84353333002606       -4.30916209735977
H           32.06308463624988       -9.21157099600150       -6.00564794831937
H           30.91180252668033       -6.99471087260134       -3.28758823896722
H           30.94335774769741       -5.05537826317319       -1.79845936193421
H           29.71648821141657       -3.22081454788470       -3.18213666378022
H           27.82683016819717       -1.73087136464227       -1.96889586415550
H           27.86451502026164        1.55147831700387        2.12869870732215
H           29.76298308437919        3.06400896600727        3.30021653773818
H           30.83584021546078        4.95313869609841        1.89220595140388
H           30.83199007534869        6.88460097049872        3.39197169291266
H           33.18882616936748        7.15999752587229        6.18047103509612
H           32.40464554014054        8.77913125907147        4.29894566819742
H           32.10610979420298        9.14472922869274        6.01805476539975
H           30.81657584184141        8.43583893548432        5.03163210214335
H           33.81309193808774        4.98021490182167        5.83426818960273
H           33.79909220951942        3.03771188520679        4.32206080053904
H           34.86101066271625        3.96913172493377        2.12474322622756
H           36.74580837214184        2.49807805708915        0.87741570493197
C           24.93782257117596       -0.07836059187369        0.09182305184220
C           23.70736741411501       -0.07618368761557        0.09580249193313
C           22.36613122945872       -0.06692620922007        0.09484366311555
C           21.14056785538179       -0.05497011872952        0.08827949120573
C           26.27898234251214       -0.07695521867177        0.08189453613272
C           27.50455773899389       -0.07121940802036        0.06905342265642
