185
 energy: -338.201413185157 gnorm: 0.000839175912 xtb: 6.5.1 (b24c23e)
Cu          29.71144809351471       -0.18962834281583       -0.11751568280023
C           26.29605631814206       -0.12201032845223       -0.11224584983200
C           26.93924804889118        0.74755843797239        0.75539020264919
C           26.27717287254634        1.66093514992822        1.64215617334617
C           27.24690655826633        2.32837483185430        2.31723083772905
C           28.50577046201228        1.82623442159017        1.84634745498398
N           28.29399249048486        0.87084773078415        0.90175555521652
C           29.76090087941061        2.26275827217470        2.29941117432043
C           29.77938164275967        3.26938085085682        3.29087785776861
C           29.78707035508463        4.13672046779666        4.13955180093384
C           29.79828657323798        5.14486774680485        5.13058297361322
C           31.00041996507342        5.65247924912419        5.63721319364994
C           30.95598663499507        6.63923068097797        6.60587824801476
N           29.81911486815272        7.13636869972190        7.08657696560485
C           28.67202055962472        6.65902062579520        6.61013913482536
C           28.60697506975882        5.67333346804547        5.64158357025040
C           30.99653575284190        1.77738671883253        1.84443725977024
C           32.27062193971310        2.23202272429438        2.31553696201880
C           33.21586158581964        1.52924642686358        1.63917487282507
N           31.17627615780748        0.81228052926804        0.89639249153299
C           32.52179807833194        0.64360385601262        0.75338185719713
C           33.14916656391279       -0.25537136374393       -0.12544472852577
C           32.48297012026314       -1.13068573292009       -1.00000609294342
C           33.13837547955264       -2.04303880589045       -1.88824011022186
C           32.16383432648934       -2.70909029380302       -2.55986206053122
C           30.91042011745043       -2.20508542487673       -2.08367481163000
N           31.13138126599176       -1.24751803399024       -1.13677448195236
C           29.65529797542404       -2.64190981936552       -2.53461142791044
C           29.63582997142681       -3.64839245448858       -3.52611371568581
C           29.62563576464412       -4.51024190368663       -4.38019526013128
C           29.62209575201818       -5.51678942431176       -5.37283651356177
C           30.81876023747214       -6.02966593761449       -5.88736370373854
C           30.76384027770121       -7.01347547810216       -6.85837320110661
N           29.62161240624180       -7.50334312209925       -7.33385357037121
C           28.47978050410796       -7.02110350477859       -6.84977810933655
C           28.42519846145888       -6.03737453460007       -5.87849975669842
C           28.41995250368455       -2.15676510758175       -2.07740194217128
C           27.14079885753076       -2.60822849391560       -2.54474344182972
C           26.20046185335412       -1.90265878178347       -1.86682261034516
C           26.90108096079047       -1.01664550137010       -0.98181427394993
N           28.24937648178053       -1.19387422593597       -1.13211433450945
H           25.21107726256410       -0.10010056479836       -0.11054644087593
H           25.20718280622062        1.76734489739129        1.72694300337671
H           27.13320287002940        3.09374548622579        3.06849350436426
H           31.94903570105289        5.27611999291730        5.27380449976482
H           31.87344423470938        7.05119807077130        7.01634165053451
H           27.76333804959086        7.08669063703833        7.02407347180115
H           27.65057607970819        5.31349902791271        5.28174010397925
H           32.41308300097761        2.99187961399159        3.06729488443662
H           34.28858487172725        1.59704658782432        1.72490017622423
H           34.20713013907706       -2.15290796899109       -1.97899073526023
H           32.27378936625854       -3.47430100426767       -3.31159832136426
H           31.77131002834223       -5.65903414010761       -5.52828830452012
H           31.67685276994802       -7.42893390666490       -7.27518733680820
H           27.56660548290201       -7.44299409518812       -7.25972848669456
H           27.47274770026030       -5.67334047232717       -5.51254114240599
H           26.99497930862389       -3.36824788127444       -3.29590456116573
H           25.12682387655970       -1.96603060349049       -1.94859347949202
Cu          61.82368868276303       -0.24165114315330       -0.16554370086975
C           65.23935798287624       -0.28596183309025       -0.17825954369877
C           64.59872361665745       -1.47565693871938       -0.48949961134152
C           65.26332967962301       -2.70600012769293       -0.81137098570605
C           64.29532667995738       -3.62708181853703       -1.04856487456896
C           63.03521296423638       -2.96398936228966       -0.87326690416709
N           63.24428394349030       -1.66302258279407       -0.53612999962881
C           61.78123589287367       -3.57584818493237       -1.02720020207024
C           61.76073754722825       -4.94519817193164       -1.37493093222646
C           61.73786261615690       -6.12200731646784       -1.66981502140915
C           61.70529516669465       -7.49364815744561       -2.01039585534691
C           60.49133293228829       -8.17617508822939       -2.15237726271492
C           60.51220709469332       -9.51909869747045       -2.48397701769754
N           61.63699773085821      -10.20329553315016       -2.67747006481417
C           62.79510497976543       -9.56154365527781       -2.54471695051528
C           62.88368860318512       -8.22067590311862       -2.21569522567943
C           60.54457952827953       -2.93391373955537       -0.86025448009571
C           59.27174950264629       -3.56999180867736       -1.02425370924823
C           58.32475517709008       -2.62717294261835       -0.78176624406936
N           60.36238711844189       -1.62417497560512       -0.52262375686362
C           59.01656395594834       -1.41302818597122       -0.46850411521119
C           58.38597737107629       -0.19592274784203       -0.15765807681145
C           59.04892746429407        1.00329994331260        0.15239428208969
C           58.39084033104358        2.23460292222429        0.47095958275445
C           59.36364673894005        3.15135718704099        0.71189947926981
C           60.61862783908667        2.48220732648890        0.54076428940857
N           60.40027863457967        1.17856906521162        0.20108905552817
C           61.87292527266147        3.09069404325199        0.70147836089587
C           61.89523327609535        4.45873501212800        1.05438165803592
C           61.92158588382398        5.63396398942793        1.35529715685537
C           61.95376220893842        7.00381533774479        1.70323543946544
C           60.77458723281104        7.73298935502729        1.89633488725422
C           60.86213854909460        9.07170671301150        2.23424031608552
N           62.01999715389643        9.70947598272273        2.38692877509617
C           63.14551301866878        9.02323226820961        2.20531964993820
C           63.16742115520214        7.68218976642907        1.86618673011362
C           63.10961264119150        2.44673196802901        0.53645839967057
C           64.38781323269306        3.07698394892739        0.70277467427873
C           65.33002035108153        2.13193309128147        0.45643152789456
C           64.63168984674431        0.91945117741939        0.13838247680447
N           63.28280407705074        1.14147099087500        0.19580842699486
H           66.32446166345777       -0.29984560871515       -0.18248365957972
H           66.33367223854675       -2.83430052628981       -0.84723750814902
H           64.41057982562778       -4.66474989895139       -1.31890276427665
H           59.55197719830836       -7.65744252722457       -2.00349224767236
H           59.58519740538006      -10.07328798936192       -2.60003437026302
H           63.69331951676863      -10.14969844168567       -2.70966435008495
H           63.84830708968482       -7.73747570750574       -2.11748587213009
H           59.13075056176837       -4.60507539230838       -1.29158276927339
H           57.25233915103827       -2.73499067980141       -0.81026620055236
H           57.32151819557880        2.36940198742402        0.50388932730973
H           59.25197321505667        4.18933117444155        0.98202239806297
H           59.81011464738714        7.25309302844559        1.78195047037482
H           59.96328606150080        9.66143375151698        2.38987515365859
H           64.07230355924429        9.57413799051013        2.33766670451426
H           64.10743570984916        7.16175245925800        1.72765700809411
H           64.53212778809261        4.11089550412668        0.97352586810612
H           66.40354789224230        2.23279701755945        0.48388840213883
C           38.35065895074855       -0.39358023345362       -0.22532698635435
C           37.12432250933168       -0.35265563515251       -0.19102935398172
C           35.77897891363309       -0.31770697362264       -0.16033518425269
C           34.55667509433103       -0.28400559017017       -0.13385310260134
C           39.69571262824917       -0.43299538253835       -0.25825489982570
C           40.91791844505647       -0.46580022359021       -0.29287389416563
C           54.40996003014745       -0.22523870096425       -0.17969871942735
C           53.18322538828434       -0.26628303423024       -0.19731109085299
C           51.83847602324717       -0.31525267211048       -0.21769073887957
C           50.61660433083311       -0.36614904722574       -0.24314522358093
C           55.75552773679915       -0.19935955888935       -0.16344775773078
C           56.97848797556932       -0.18445310126951       -0.15627181206645
Cu          45.76855311239886       -0.50151651616019       -0.32893753370489
C           42.32478227693665       -0.49339590054799       -0.31654565416595
C           42.96979434972581        0.21311476685719       -1.34626368250493
C           42.29374026951977        0.92649475717674       -2.38781704133469
C           43.25329772977350        1.46141598067240       -3.18681616330400
C           44.51732946756660        1.08170898946973       -2.63054036899261
N           44.31794592746908        0.32180321286773       -1.51528515340418
C           45.76363821399965        1.45611577213028       -3.15610528615561
C           45.76473330722460        2.23767997979164       -4.33354577127514
C           45.77107057797436        2.89841756773931       -5.35130539967525
C           45.78403951237463        3.66470069587087       -6.53919485940897
C           46.98800505218624        4.07892844237929       -7.12073320459874
C           46.94820595242300        4.82285346667843       -8.28646537677227
N           45.81410175090071        5.16897382093548       -8.89023530944521
C           44.66519053751421        4.77974489176635       -8.34310340469743
C           44.59553889874422        4.03381463137654       -7.18003887480962
C           47.01097194203818        1.12315742844867       -2.60544281579994
C           48.27240600338236        1.54561003661854       -3.13627716002249
C           49.23371146867903        1.03246087174638       -2.32532567816765
N           47.21383284239577        0.36243285350010       -1.49137398883785
C           48.56158067182430        0.29027136189317       -1.30152666006359
C           49.21078072023352       -0.41631146515441       -0.27435124018763
C           48.56655599740087       -1.17863225957652        0.71533288995023
C           49.24318146258561       -1.92240534730073        1.73502112310396
C           48.28480699011819       -2.52799047110147        2.48336095405500
C           47.02073656826963       -2.14990772262867        1.92596350251917
N           47.21917901101932       -1.33194328666491        0.85236431848028
C           45.77497502503237       -2.55724969622544        2.42785491408945
C           45.77649176664588       -3.42643282182517        3.54221062298363
C           45.77533925749432       -4.18318048025849        4.49071719292566
C           45.77186861710090       -5.07061676908701        5.59117878235776
C           44.57288711967566       -5.53527925850607        6.14450066587765
C           44.62338479149098       -6.40795912209367        7.21678193208761
N           45.76334293170370       -6.83313723736743        7.75574136711354
C           46.90736645614680       -6.39503997111679        7.23621792334595
C           46.96635850805831       -5.52170854444218        6.16481966446292
C           44.52670260577921       -2.16938592049125        1.91650852534191
C           43.26480623764341       -2.56545832148480        2.46624144501916
C           42.30234945126911       -1.97967997542257        1.70749630589051
C           42.97432219216104       -1.23084428852714        0.68842573598055
N           44.32306550128459       -1.35975321937331        0.83762628577587
H           41.22270433241355        0.99981585368000       -2.48862478895694
H           43.12622718768309        2.06309206192673       -4.07260302215278
H           47.93447520788585        3.81857682582624       -6.66246449341552
H           47.86729608221516        5.15720468640550       -8.75928299925251
H           43.75893849721893        5.07958045460656       -8.86147315649091
H           43.63793117228408        3.73752322128164       -6.76903541410318
H           48.39685334732654        2.15823518950362       -4.01488482224345
H           50.30360298581116        1.13837821715036       -2.40716653788516
H           50.31384907094861       -1.97108518779567        1.85311179563630
H           48.41258108683068       -3.17108950892560        3.33944114957286
H           43.62201329553006       -5.21500346451535        5.73597493755189
H           43.70856732786236       -6.78499897267181        7.66496595831925
H           47.81863131960824       -6.76163918736449        7.70003665208471
H           47.92043940784261       -5.19075680810337        5.77266222839163
H           43.14088268200214       -3.20644790126619        3.32445990723980
H           41.23181316372138       -2.04630052445560        1.81757922902627
