416
 energy: -721.714648292995 gnorm: 0.000331802094 xtb: 6.5.1 (b24c23e)
C           68.47097945583816        0.07582168352574        0.04405910185022
C           69.08750406556054        1.30061626028594        0.26487649795243
C           68.44310742825459        2.55190129838676        0.47674106442058
C           69.41107572923745        3.49856525816196        0.66057857739585
C           70.67832925324201        2.85410377798080        0.57587189965119
N           70.43237385585121        1.53365851464111        0.32810233187092
C           71.94546176311205        3.43656740325369        0.69213254947536
C           71.98510238972860        4.88975871067416        0.98132131167061
C           72.57849246841255        5.78889982840205        0.09590395795878
C           72.58754221353671        7.13903131780049        0.40854621214998
N           72.05679405533768        7.62783204624256        1.52488721962785
C           71.49188353794261        6.77741152359450        2.37577591695320
C           71.42874774308410        5.41157556395974        2.14870815575878
C           73.15731665644084        2.75506740470110        0.55994857145045
C           74.45905413680700        3.37258854464257        0.74021135742234
C           75.37349985914608        2.40134839766440        0.54016622177679
N           73.30311338443441        1.43175111130260        0.27428753237996
C           74.62916305903575        1.19135863752794        0.24774199901031
C           75.25824179037197       -0.04170763167527       -0.01947938541773
C           74.61543688849133       -1.26770929824307       -0.27529581485194
C           75.25266645815361       -2.50215176728642       -0.57005306938959
C           74.28042186156803       -3.44680027479751       -0.74861096284187
C           73.01840856960671       -2.81826293883525       -0.55913212490479
N           73.27289615645361       -1.50075741056835       -0.28360643688239
C           71.75252336740728       -3.40472662363148       -0.65946807198745
C           71.71241350314726       -4.85735086987659       -0.94785843248292
C           72.28833717215970       -5.78524967068207       -0.08042827218575
C           72.22458608206547       -7.13386237978034       -0.39346814682625
N           71.64076071672592       -7.59511171526571       -1.49479070769911
C           71.09109919062955       -6.71746077055346       -2.32810316358407
C           71.09902100328799       -5.35068341662056       -2.09906765042911
C           70.53974130488380       -2.72429098860217       -0.50760194155130
C           69.23199335381896       -3.35917948058673       -0.56373408794535
C           68.32436188792131       -2.38183131188062       -0.36819033738377
C           69.07643688548856       -1.15316610250383       -0.18219602244323
N           70.40712369607569       -1.39894104120417       -0.26474348569432
H           67.38575278817240        0.09001983705283        0.05310188100859
H           67.37451820271973        2.69629690424279        0.47993610939566
H           69.26650118249316        4.55295379680456        0.83161118892587
H           71.15363126403449        0.83084559425235        0.20521252903828
H           73.01279114982796        5.43714087164558       -0.83227558390018
H           73.03995190590916        7.85876608821209       -0.26738064817938
H           71.07049017177928        7.20614314221377        3.28036189105873
H           70.96959655581585        4.75487472169956        2.87814167857645
H           74.62813472569587        4.40526842167413        0.99864679593305
H           76.44849726678308        2.46913687274477        0.58812718202345
H           76.31972597156161       -2.63852659486743       -0.64062841317622
H           74.42148991582502       -4.48538478225763       -0.99952249443323
H           72.55481671020871       -0.80326633808063       -0.11769286109653
H           72.76347687510180       -5.45686836883519        0.83637779361656
H           72.66152194923872       -7.87511381792907        0.26930924040869
H           70.62403258969319       -7.12452147215193       -3.22014546496479
H           70.64982961766732       -4.67158911566577       -2.81386204819049
H           69.05798031614407       -4.41175915659374       -0.71879408880272
H           67.24852130972673       -2.45494206496818       -0.33877803513136
C          171.30093995332075       -0.09315448877353        0.02402131506249
C          170.68605396131196       -1.28702900263309       -0.33034569687147
C          171.33199778424435       -2.50002913744572       -0.70078001323294
C          170.36516131950489       -3.42902407557753       -0.96374614985034
C          169.09707283403912       -2.81607100305344       -0.75235840079097
N          169.34144493153065       -1.52438802544597       -0.38175073971708
C          167.83047261116226       -3.39073489466961       -0.90684237151813
C          167.79115792551599       -4.81908712941032       -1.30050666670637
C          167.19172160111088       -5.22450336038197       -2.49258442032528
C          167.18308426833727       -6.57079205190319       -2.82119485018922
N          167.71970204079221       -7.50888811339605       -2.04731578231551
C          168.29006596965331       -7.13157710111033       -0.90773093481279
C          168.35332916634414       -5.80962745704291       -0.49593858961100
C          166.61805783261690       -2.72386482438368       -0.71703034211680
C          165.31737831983872       -3.36083565713787       -0.82108383223145
C          164.40174524855709       -2.40295187961955       -0.56873838501338
N          166.47064117969725       -1.41049121927062       -0.38961870418171
C          165.14434463560661       -1.18563695909578       -0.30378492973183
C          164.51371961760830        0.04149114125950       -0.01383838115887
C          165.15543127705649        1.25811391661903        0.28604591412950
C          164.51753532778551        2.49836416182081        0.55357203252000
C          165.48874106889645        3.42438492247712        0.81599010621819
C          166.75061321261566        2.77402409213791        0.72493868295754
N          166.49736215228373        1.46948024426645        0.39257929932780
C          168.01556110346709        3.34199514955289        0.90905623259719
C          168.05407069612045        4.77188323016395        1.29464024472869
C          167.46312991960477        5.22030384502902        2.47570835751678
C          167.52687903327154        6.56749906215848        2.79472062501554
N          168.12445841385747        7.46772872288253        2.02076096650802
C          168.68824191629440        7.04935931815838        0.89207924616727
C          168.68154240607254        5.72296830541587        0.49050846548968
C          169.22882169813977        2.66205898196541        0.75867584206568
C          170.53502551547314        3.25335293917129        1.00496375941514
C          171.44376160754675        2.28964927903908        0.75451705363138
C          170.69378634876185        1.10787567520794        0.36622900091305
N          169.36318999036411        1.36661140391596        0.38866447731834
H          172.38612600913891       -0.11034726502521        0.03258098679811
H          172.40080188729331       -2.62989273419322       -0.76026792789239
H          170.51117116146642       -4.44786908865589       -1.28392667946525
H          168.61933660008111       -0.84149865886350       -0.17808987392452
H          166.75242387665139       -4.49324218321202       -3.16053823234716
H          166.72615048897237       -6.90993537246739       -3.74627464819400
H          168.71599114170007       -7.92094565061955       -0.29524883663581
H          168.81694057343955       -5.55097460416731        0.44867646013891
H          165.14995612506439       -4.40237479938036       -1.04240586861901
H          163.32701839850685       -2.48750220542765       -0.55053125981558
H          163.45079879232762        2.65351010255384        0.53943936003844
H          165.34714287634182        4.46832706701347        1.04327631327999
H          167.21575478732197        0.76823540820777        0.24484154992776
H          166.97650324539828        4.52064839361284        3.14489481915242
H          167.07854598667453        6.93894770880281        3.71159873526038
H          169.16630832303738        7.80853854640771        0.27996294360478
H          169.14270144456449        5.43027318741710       -0.44518916584738
H          170.70726956935189        4.26462260715482        1.33649051647975
H          172.51901043867667        2.34029550372067        0.82464116067835
C           80.45937977396443       -0.09989309626785       -0.04705686847159
C           79.23095387395968       -0.09327203778549       -0.04479144141334
C           77.88724016107227       -0.08119124328164       -0.03925992488251
C           76.66342038595361       -0.06337932558812       -0.03175557811255
C           81.80298515586114       -0.10146338484606       -0.04833218809448
C           83.02711828072388       -0.09564167944166       -0.04795593001407
C           96.48031109881695        0.01328969329450        0.04070744936119
C           95.25160019415279        0.00573268733909        0.03674729785908
C           93.90888668846233       -0.00331167236393        0.02952037263381
C           92.68463804749481       -0.01583670080979        0.02027079321746
C           97.82305471133039        0.01680728138396        0.04132889757341
C           99.04739298156363        0.02155278674457        0.03868728950138
C          112.49438401323630        0.00260888790401        0.02151292104408
C          111.26567878797310        0.00147467530618        0.02285871442841
C          109.92307699635366        0.00143996889835        0.02123727479064
C          108.69876392248773       -0.00083049464801        0.01864608967326
C          113.83698305676013        0.00249973125385        0.01918964583365
C          115.06128133561441        0.00556364893631        0.01373414312555
C          128.50614796058542       -0.00005050135493        0.02437269777425
C          127.27744293718247       -0.00021783065581        0.02268569271367
C          125.93484472078796       -0.00036175433538        0.01934366092896
C          124.71054476712641       -0.00347935064526        0.01398996926451
C          129.84875105315828       -0.00159377111198        0.02479370064675
C          131.07306574929046        0.00001758359674        0.02221642794400
C          144.52037548214864       -0.00433386306160        0.00652751278714
C          143.29166322527101       -0.01147292681753        0.01125448413117
C          141.94892104219340       -0.01636854485863        0.01355142072165
C          140.72457559386655       -0.02098722300822        0.01451365557684
C          145.86309646456621        0.00427724474819        0.00028065357460
C          147.08737476732909        0.01666209682732       -0.00620369566646
C          160.54112480242611        0.09873428287508       -0.02399177525572
C          159.31266639981374        0.10474111471478       -0.02668781062435
C          157.96912232150657        0.10513877943667       -0.02621799448464
C          156.74496057979050        0.09761548484260       -0.02736598139723
C          161.88477654152288        0.08500801148215       -0.02222175886097
C          163.10863406911201        0.06577678512208       -0.02014538815463
C           84.43150218711050       -0.08733082071763       -0.04428517818862
C           85.06379794190863       -1.31828069721651        0.21704826211650
C           84.41923487232289       -2.55023615221183        0.49994521830265
C           85.38744052008504       -3.49931632733843        0.68367883809372
C           86.65192363403256       -2.87416706749855        0.50930465243591
N           86.40564378333175       -1.55499100795863        0.23790964986138
C           87.91491424084633       -3.46973870216180        0.61330539226673
C           87.93658841530274       -4.92624932679583        0.88971192807202
C           88.52197718923561       -5.43387657942710        2.04904630088405
C           88.51427123938247       -6.80261540613390        2.26638670781941
N           87.97489171168731       -7.66838655591004        1.41422637166805
C           87.41782082708129       -7.19322355852663        0.30509269574727
C           87.37126589393701       -5.84142648325357        0.00242877752478
C           89.13622350967390       -2.80844240230673        0.47889122284054
C           90.42694325485088       -3.47103225693572        0.53615361483880
C           91.35771551576551       -2.50932527898275        0.36744086762172
N           89.30402195788719       -1.47482816223602        0.25967685789999
C           90.63381462634480       -1.26454740238234        0.19873732036467
C           91.28119434395617       -0.02701209430301        0.00716138155049
C           90.64850839897538        1.21382665152923       -0.20192041972854
C           91.29221446999061        2.46669698105560       -0.37310622100276
C           90.32415468911206        3.41435991690191       -0.56429040401742
C           89.06088134492801        2.76412417806036       -0.52331153684926
N           89.30757544931664        1.43720730636395       -0.29230545021319
C           87.79858231412139        3.35204576559719       -0.66684882250490
C           87.77792687203691        4.80879695469432       -0.94241636332404
C           87.17735485866851        5.70462141110803       -0.05867146151368
C           87.18771962197266        7.05792442579439       -0.35753205428642
N           87.74343171865172        7.55233232937881       -1.45905784293967
C           88.31516010614841        6.70497613092031       -2.30840029446321
C           88.36063255831780        5.33634765705104       -2.09419495938623
C           86.57740383381756        2.68296772661212       -0.57323572787321
C           85.28821171788627        3.31753236193900       -0.78141003830696
C           84.35711672864385        2.35750956938906       -0.60508965426314
C           85.07937517622366        1.13805635921810       -0.29986290978251
N           86.40907527541513        1.36029652467962       -0.29707641904718
H           83.35112172810420       -2.68333649226644        0.55903491605932
H           85.24059002571772       -4.53868779641680        0.92776160003933
H           87.12497645483964       -0.85664627712209        0.08241382962571
H           88.96305203604165       -4.76435310644202        2.77776553529737
H           88.95991517589175       -7.22112121184416        3.16404168324493
H           86.98886343409541       -7.92523567964301       -0.37294265028078
H           86.91742173037156       -5.50113119394306       -0.92077358198043
H           90.57806603589880       -4.52947653440362        0.67264044708653
H           92.43127959853447       -2.60722634457590        0.34724811055982
H           92.35952229133537        2.61580319529379       -0.34684594858744
H           90.47006009870714        4.47192371553258       -0.71162209004905
H           88.58891655706479        0.72733043618886       -0.19807365235847
H           86.72264492350789        5.34773992538693        0.85767468264078
H           86.73060158315435        7.77540802706295        0.31757355352718
H           88.75739773603928        7.13852962522141       -3.20060743352546
H           88.82732328865919        4.68229584202262       -2.82118103929602
H           85.13854934404969        4.35311981851542       -1.04008362630591
H           83.28440594891555        2.43849440906800       -0.67714130127996
C          100.45092447645486        0.01768645663328        0.03347612193646
C          101.07194114621085       -1.21694075102856        0.30595224024364
C          100.41576307567520       -2.43775250971708        0.60967195879373
C          101.37429000397579       -3.39758129540338        0.78842120196261
C          102.64384129085292       -2.79028859950675        0.59035014320609
N          102.41064692300577       -1.47019274205118        0.31154466710596
C          103.90051659549655       -3.40133812224618        0.67865349182701
C          103.90773733181230       -4.85699007489805        0.95990170642499
C          104.50342349658214       -5.36900132119484        2.11198006235764
C          104.48057375859013       -6.73692530375522        2.33355529592087
N          103.91728776238629       -7.59781344372880        1.49201622606059
C          103.35025181096326       -7.11847072268123        0.38975533905432
C          103.31712780123478       -5.76702974522234        0.08383011509486
C          105.12726100253226       -2.75491331215326        0.52361310323415
C          106.41136348803344       -3.43097645994981        0.56716567840223
C          107.35008439077799       -2.47964445206381        0.38398162688710
N          105.30628300619421       -1.42397903857937        0.29680068118414
C          106.63729999736152       -1.22791447502709        0.21931003279004
C          107.29537507436363        0.00212401585505        0.01631618177576
C          106.67478697864817        1.24878490879957       -0.19493881773709
C          107.33154353258448        2.49293826498922       -0.37949914385093
C          106.37308691737442        3.45032904971815       -0.57098604084357
C          105.10294665864218        2.81492570548879       -0.51655227114829
N          105.33593182071904        1.48700881150563       -0.27739417193902
C          103.84613503209007        3.41565885073949       -0.65661733954491
C          103.83899874038286        4.86981157919744       -0.94561923296945
C          103.25178576197027        5.77986305601055       -0.06742028375793
C          103.27453850620113        7.13017881457344       -0.37883626901542
N          103.82992688820174        7.60869543781681       -1.48751671257953
C          104.38891485725254        6.74774250701945       -2.33165602983607
C          104.42151312913411        5.38076145150811       -2.10497389431628
C          102.61914295883474        2.76009828888997       -0.54772061933613
C          101.33458720866808        3.40446465252280       -0.75386687487358
C          100.39581232558101        2.45534940959989       -0.55966671440235
C          101.10888500844334        1.23285692880750       -0.24512167554343
N          102.44025083655897        1.44211527451633       -0.25509488582637
H           99.34701848099402       -2.55676049547206        0.68484738588617
H          101.21778827069639       -4.43279316173343        1.04389673900750
H          103.13682214929592       -0.78308995696800        0.13875767780766
H          104.96393488366857       -4.70336273359319        2.83217328579079
H          104.93359850855454       -7.15880871455019        3.22590959522172
H          102.90162688643265       -7.84660207172015       -0.27966729281376
H          102.85400470944020       -5.42321165242858       -0.83344298316734
H          106.55281158948955       -4.49049959808618        0.70565382152166
H          108.42223049163411       -2.58892408454047        0.35104525181695
H          108.40063099086812        2.63000757753106       -0.36179674561669
H          106.53003964939431        4.50505398939546       -0.72703430872121
H          104.60950005977686        0.78654420475587       -0.17284495274984
H          102.79794778004812        5.43614253802413        0.85437627884171
H          102.82805736198677        7.85850745968543        0.29176383839884
H          104.83122688380148        7.16850921675159       -3.22992424358644
H          104.87797618267199        4.71530890909385       -2.82809545927155
H          101.19286574295187        4.43837658422829       -1.02351884149447
H           99.32335713753660        2.54555515440716       -0.62460329841998
C          116.46467985064106        0.00267141546057        0.00962476744519
C          117.08644463135387       -1.23117560977475        0.28355889890729
C          116.43085499914729       -2.45257770357004        0.58631877022894
C          117.39002277027282       -3.41111372381971        0.76842105630577
C          118.65937378152196       -2.80240570839817        0.57336473638851
N          118.42534870259594       -1.48285077054328        0.29263939610814
C          119.91671923940177       -3.41125290595601        0.66601453503160
C          119.92581556026929       -4.86615837104742        0.95088592307493
C          120.51961718091648       -5.37374031811560        2.10590832919999
C          120.49832762458203       -6.74099564323713        2.33164895999466
N          119.93831490023291       -7.60530409288843        1.49142886225879
C          119.37320651821118       -7.13021215663923        0.38634764632348
C          119.33871240684520       -5.77975817999218        0.07618443154017
C          121.14265272472298       -2.76273743053524        0.51289787475603
C          122.42779829129559       -3.43649649537627        0.55979493276938
C          123.36520874900829       -2.48372507904911        0.37735345522315
N          121.31975030079427       -1.43174076930944        0.28504958655444
C          122.65060599169240       -1.23336901688547        0.21012001411300
C          123.30715038656271       -0.00231408888565        0.00830664789854
C          122.68541927419190        1.24369349056450       -0.20356452844525
C          123.34106362919364        2.48891125999482       -0.38483008546568
C          122.38189840638957        3.44540379151487       -0.57738569496413
C          121.11247709572289        2.80831853223661       -0.52710756794248
N          121.34648629908889        1.48036713147088       -0.28922492942692
C          119.85510082666549        3.40736836877216       -0.66967764253936
C          119.84595534513203        4.86227566056722       -0.95460154322889
C          119.25370697532519        5.76812336252754       -0.07539976984029
C          119.27485496710118        7.11954531607618       -0.38200840386764
N          119.83326973908645        7.60300328798908       -1.48702209904621
C          120.39687430997100        6.74608331894105       -2.33218482490189
C          120.43141625803720        5.37836972435905       -2.11016421368260
C          118.62913760528023        2.74926362097090       -0.56553892540039
C          117.34391042437900        3.39120887435746       -0.77497630577223
C          116.40650998681001        2.44009897481513       -0.58401301605723
C          117.12118547762914        1.21886829807584       -0.26802457234746
N          118.45207218220867        1.43065461115095       -0.27445168410912
H          115.36204087112857       -2.57277993889683        0.65860721056422
H          117.23404671352861       -4.44633002195643        1.02419773985397
H          119.15127978170847       -0.79503051167856        0.12167103029272
H          120.97737997982034       -4.70515306235017        2.82512275572320
H          120.94984826927431       -7.15943322126303        3.22638311269696
H          118.92728038005863       -7.86108991146365       -0.28188322071809
H          118.87723782943908       -5.43949880520921       -0.84324258773737
H          122.57074041379590       -4.49563620595579        0.69966544977488
H          124.43759571452999       -2.59120099462469        0.34662876990719
H          124.40992313110706        2.62731197934007       -0.36416623913728
H          122.53790872970119        4.50053928516156       -0.73157885831924
H          120.62052165567437        0.77902983827125       -0.18722412446143
H          118.79724765843888        5.42025454813391        0.84354403549825
H          118.82455429301021        7.84463791623010        0.28954235919466
H          120.84149699042311        7.17086367286821       -3.22741542676529
H          120.89164829114226        4.71637210068021       -2.83406091449694
H          117.20091611221440        4.42496721799736       -1.04455175297194
H          115.33407090370535        2.52822006335128       -0.65201375840639
C          132.47645103893439       -0.00431211323456        0.01941900779808
C          133.09693268511779       -1.23863504849296        0.29397240439318
C          132.44022600382169       -2.45939977395778        0.59687539899815
C          133.39859062816711       -3.41841708944483        0.78055017781773
C          134.66859303988812       -2.81074716919873        0.58612140661006
N          134.43566233602886       -1.49118804241398        0.30438704615147
C          135.92530366101718       -3.42068934839588        0.67960287495341
C          135.93259023856209       -4.87547007619105        0.96537253631885
C          136.52515482439259       -5.38320355098030        2.12095088089207
C          136.50223189561618       -6.75034996495575        2.34724596447866
N          135.94174942111337       -7.61440729754319        1.50708183689463
C          135.37774898653618       -7.13916120790811        0.40149757655111
C          135.34493183584595       -5.78880449215615        0.09075439400777
C          137.15222538076478       -2.77408788116327        0.52546898001672
C          138.43623705833633       -3.45008143364806        0.57187306691113
C          139.37516980069532       -2.49936704015031        0.38642499612129
N          137.33148410576987       -1.44376126256447        0.29573360147374
C          138.66270777568491       -1.24794194496574        0.21848883525838
C          139.32103216749516       -0.01828746955673        0.01429279454733
C          138.70030759131518        1.22874799550349       -0.19513417513589
C          139.35698206315232        2.47348137762745       -0.37576118645551
C          138.39854038069339        3.43135271268384       -0.56512467121453
C          137.12851019733520        2.79559731223687       -0.51388493215970
N          137.36143311807641        1.46709050851040       -0.27807818841194
C          135.87173139373741        3.39641681367595       -0.65487848122327
C          135.86433862868776        4.85164496407802       -0.93836362782222
C          135.27389666534788        5.75749869186654       -0.05796321699597
C          135.29654260889160        7.10915257368290       -0.36346399343143
N          135.85472640534098        7.59283003029939       -1.46849790310490
C          136.41655620835704        6.73589487022683       -2.31483041016673
C          136.44950543554171        5.36796043125043       -2.09397737768567
C          134.64486295359308        2.73999138290018       -0.55148007370432
C          133.36059789204447        3.38400138281819       -0.76071664380136
C          132.42178977468083        2.43389949442018       -0.57171402486483
C          133.13463529470573        1.21132206000466       -0.25676931835844
N          134.46578572025069        1.42126210809158       -0.26211775495136
H          131.37125534773062       -2.57882402152451        0.66822020102246
H          133.24161872072665       -4.45333468623177        1.03693000793629
H          135.16206991734271       -0.80388306961221        0.13341669181688
H          136.98326576857806       -4.71483016020189        2.84014216626535
H          136.95281038980480       -7.16891633004773        3.24239629980068
H          134.93137772853214       -7.86982114174437       -0.26667656305986
H          134.88431066892059       -5.44841177201513       -0.82905315187740
H          138.57741455691553       -4.50924001013779        0.71339435177581
H          140.44732696793741       -2.60878331512401        0.35443682499403
H          140.42600815303157        2.61075329917102       -0.35660442353885
H          138.55547158463128        4.48656433933722       -0.71784028594388
H          136.63495530884296        0.76628700766323       -0.17607332098678
H          134.81761375296625        5.40944815698962        0.86100058539742
H          134.84767129162333        7.83426259158753        0.30902622526919
H          136.86100267296572        7.16084265547027       -3.21006875441139
H          136.90827296417078        4.70595651162645       -2.81879553634565
H          133.21915498567196        4.41832822882340       -1.02893630304348
H          131.34951027725378        2.52355399858943       -0.64028063065848
C          148.49084662362685        0.02671677070811       -0.01297329318341
C          149.12572441248128       -1.20212764244675        0.25267927512041
C          148.48422609233515       -2.43199798552718        0.55138467664965
C          149.45420462978788       -3.38109304970673        0.72501450792887
C          150.71650360895325       -2.75807232838096        0.52804647341670
N          150.46728348572327       -1.43951433527305        0.25556357832913
C          151.98010440117309       -3.35496731075184        0.60976286081190
C          152.00457247034686       -4.81123783076197        0.88703726875028
C          152.60976318827005       -5.31838687216743        2.03634537095612
C          152.60244326681308       -6.68673527835603        2.25614919988664
N          152.04557715087134       -7.55250132129701        1.41532072832102
C          151.46986713410533       -7.07781780936245        0.31555171143135
C          151.42104351827211       -5.72638399098807        0.01159134262221
C          153.19980568364480       -2.69497570906468        0.45290374053545
C          154.49010671266373       -3.35990808073643        0.48393663677611
C          155.41944757295090       -2.39874997956744        0.30434820612562
N          153.36563845881133       -1.36086217728829        0.23711668024370
C          154.69502659691173       -1.15176013435537        0.15595252946796
C          155.34068068594991        0.08751300405556       -0.02846986584999
C          154.70560687000307        1.33043444325200       -0.21643373885985
C          155.34682599468647        2.58561067918737       -0.37910901279742
C          154.37672690003961        3.53362826578548       -0.55866746803857
C          153.11456951821421        2.88134964972789       -0.51903407137759
N          153.36374002643345        1.55324845784393       -0.29878061913144
C          151.85082370395341        3.46813627873395       -0.65865321805877
C          151.82662535969169        4.92553614262451       -0.92967041535297
C          151.21816750864883        5.81628701280271       -0.04605819906538
C          151.22402740214767        7.17049242725833       -0.34077449179126
N          151.78278744423471        7.67066607782266       -1.43817046397285
C          152.36209109096040        6.82827855986274       -2.28734529002716
C          152.41228193506046        5.45920127543443       -2.07717141883479
C          150.63112081612394        2.79686322267696       -0.56516613064092
C          149.34035364705011        3.42837283531918       -0.77347377046551
C          148.41127227520761        2.46734969360487       -0.59188729191526
C          149.13641624954093        1.25052096936680       -0.28300151246476
N          150.46536784293971        1.47440567539230       -0.28513831428525
H          147.41699631406391       -2.56385451884198        0.62690860811752
H          149.31008764527721       -4.41919187029427        0.97603512254876
H          151.18470440180246       -0.74258187991769        0.08568922859504
H          153.06556283633506       -4.64870137935900        2.75579062789938
H          153.06295295318498       -7.10487720562411        3.14643109569260
H          151.02696643099608       -7.80987119025963       -0.35340694240505
H          150.95117569027903       -5.38640745957180       -0.90368035371977
H          154.64149931051082       -4.41936352568154        0.61200281774491
H          156.49229552357122       -2.49833022808156        0.26509968328623
H          156.41404991755641        2.73585436175021       -0.35593500847465
H          154.52070910478196        4.59260104297624       -0.69754887433707
H          152.64633189797686        0.84167943199887       -0.20771586275137
H          150.76067491844495        5.45474894916868        0.86708184452188
H          150.76047546433719        7.88392337661138        0.33425352339469
H          152.80659597538684        7.26641521141288       -3.17618354537614
H          152.88462630515068        4.80940402954232       -2.80431964835801
H          149.18819666543763        4.46259904451302       -1.03614505916823
H          147.33823283883538        2.54607344842427       -0.66208545104110
