220
 energy: -394.884117879738 gnorm: 0.000592020552 xtb: 6.5.1 (b24c23e)
Ni          40.98982678534208       -0.02323850414252       -0.02575011137334
C           37.59929955001094       -0.05201325629402       -0.06451320699578
C           38.25681947735792       -1.26448167013253       -0.05202476690761
C           37.58493369259064       -2.52825721695068       -0.04757650797904
C           38.54147497341995       -3.47602413449289        0.08679966280597
C           39.79898565295710       -2.79040760850431        0.15709875808557
N           39.61498014712789       -1.43457157277315        0.04869852443954
C           41.01021611243330       -3.41938897872109        0.41243678534386
C           41.02046113002614       -4.89019376594949        0.59987676163973
C           41.34488369670780       -5.46125236437802        1.82925106366419
C           41.33826948329597       -6.84173056292184        1.95452517082762
N           41.03963658731436       -7.65874766567297        0.94969055047961
C           40.73212315150651       -7.12157639819277       -0.22641742279914
C           40.70644189305536       -5.75355500869751       -0.44838787029812
C           42.21285537017434       -2.73092848153162        0.49626281149926
C           43.47544443772411       -3.36246995435955        0.73541123207319
C           44.42248069920701       -2.40183021558941        0.61545470824368
N           42.38579463460083       -1.38780988444329        0.25026200695371
C           43.73878443232159       -1.18813596755417        0.29780886150514
C           44.39826379532441       -0.00076732624133       -0.02463388539374
C           43.72217820277749        1.17971182940890       -0.33689122738023
C           44.38648358266241        2.39818563036954       -0.67617819935088
C           43.42720289496956        3.34904674525125       -0.77872804096312
C           42.17858777607319        2.70857073241152       -0.49506819556140
N           42.36822049509138        1.36549201079249       -0.26446051711323
C           40.96437448809225        3.37892237927523       -0.42447717364123
C           40.95776315278368        4.85161190317178       -0.58296001110677
C           40.27371295811378        5.46610061688469       -1.63100902080319
C           40.29900867882576        6.84795590390187       -1.73572478724185
N           40.94513899277992        7.62793068220437       -0.87515767063489
C           41.59838188383087        7.05009922214913        0.12784995445384
C           41.63646687356714        5.67708971807959        0.31276008652555
C           39.75754217183997        2.72408528271640       -0.21603746713447
C           38.49164480052232        3.38978221906740       -0.11381173000924
C           37.54732630821310        2.42432003968181       -0.02473795686942
C           38.23737826652434        1.17086183102886       -0.05641207028575
N           39.59381382672255        1.36357629966994       -0.13757257774815
H           36.51562901858620       -0.06057728612738       -0.07246191184596
H           36.51646325292189       -2.65209092377269       -0.12429653743239
H           38.41919576793710       -4.54503852028622        0.14996640470730
H           41.58525696806331       -4.83320458353970        2.67874101009835
H           41.58317268290093       -7.31085517787514        2.90293764034095
H           40.49535654372582       -7.81501551126109       -1.02807969648117
H           40.45962808075641       -5.36003143327331       -1.42723187177102
H           43.61077336595045       -4.41013372649485        0.94861521307817
H           45.49192024804833       -2.49544887931936        0.71399724573084
H           45.45149936422887        2.49943356550098       -0.80939354823847
H           43.54356838440118        4.39119986442387       -1.02742788119691
H           39.74265978370359        4.86940367796117       -2.36305770746295
H           39.77765468072914        7.34930301279761       -2.54590011490731
H           42.11445794774387        7.71394140118062        0.81528175340996
H           42.17355204431815        5.25021531513366        1.15139667345988
H           38.35699462751485        4.45917628006189       -0.11056897294154
H           36.47735386359613        2.53054491982459        0.05724082914651
Ni          73.56273228243302        0.04859395490416       -0.01347079298212
C           76.95755937012861        0.05937846361690       -0.05157974926090
C           76.30332376024275        1.22373225037800       -0.39528614078696
C           76.98097971236604        2.43144123914537       -0.75684622222879
C           76.02629801767436        3.37393636710402       -0.93350416208323
C           74.76482978913354        2.73853201564333       -0.68646200368214
N           74.94444972630548        1.41458582467485       -0.37205008975815
C           73.55051755972896        3.41094747066595       -0.67659818952308
C           73.54361822489687        4.86747955454058       -0.95503616676584
C           73.19171161413249        5.78945162218628        0.02932655347759
C           73.20330907035947        7.14115286240615       -0.27733049359486
N           73.53180783781828        7.60866448570084       -1.47730787737704
C           73.86546484673080        6.73538314205536       -2.42190097714877
C           73.88886896754961        5.36565237629439       -2.21011110080668
C           72.34190924457522        2.77999743001048       -0.41649570026090
C           71.07939879720865        3.45463928057318       -0.42420220821533
C           70.12983017432455        2.50777703851405       -0.23638409339627
N           72.16587134901914        1.42975801774374       -0.21389400172459
C           70.81122512779994        1.25748505616298       -0.12425864018714
C           70.14743435864000        0.03536162113507        0.00213193521230
C           70.82211311460209       -1.18023300103149        0.13298338693376
C           70.15429737544937       -2.43920220569466        0.22658911958346
C           71.11306347587197       -3.37653703144413        0.41725481684676
C           72.36612921767627       -2.68523643568029        0.44319230050517
N           72.17797615905262       -1.33807743999946        0.23320943161169
C           73.58448086803857       -3.31005185480945        0.67352127602844
C           73.59156125618979       -4.76205026011677        0.96800370093193
C           74.23095974806412       -5.66873547188735        0.12355896994056
C           74.20793117840304       -7.01801905549943        0.43973470611459
N           73.60503859975711       -7.49797020156495        1.52260551703593
C           72.99494749081002       -6.63997148858655        2.33389217478781
C           72.95841895857411       -5.27438124819420        2.09965545720606
C           74.79581555177356       -2.63271647115795        0.63315725826747
C           76.06357317628402       -3.24648572706030        0.90162023514228
C           77.00866078647643       -2.30100344790201        0.69153648908686
C           76.31738206338829       -1.10828282633161        0.30701480802636
N           74.95995598902013       -1.31106811276034        0.30130837733469
H           78.04127260529017        0.06380457222451       -0.05812776746111
H           78.05126738486796        2.52758503787734       -0.84673994410494
H           76.15148115206350        4.41227764258821       -1.19405023890219
H           72.92602369227426        5.45358714504528        1.02455092548755
H           72.93726479844472        7.87953393822488        0.47338259539021
H           74.12607751310468        7.14804625578319       -3.39213482751744
H           74.15804428656622        4.68979852888993       -3.01298328531005
H           70.94645942372948        4.51427131928067       -0.56833844602939
H           69.06054874488638        2.63047366017545       -0.18144432507411
H           69.08805416729980       -2.57537890269594        0.14858202117772
H           70.99335873647459       -4.44229612779032        0.52293250699180
H           74.72579739706916       -5.32376823337939       -0.77649562335767
H           74.69467022407383       -7.74402756512718       -0.20490426321018
H           72.51363585533669       -7.06233790451256        3.21111540438968
H           72.45742095241083       -4.61086352405406        2.79444685409658
H           76.19844408152404       -4.26929481495491        1.21369669677097
H           78.07987507184536       -2.38291381519337        0.78446208485611
C           45.80863081166061        0.00689901903239       -0.03230231519476
C           47.02387093716188        0.01136606981689       -0.03622971975467
C           56.66776100670543        0.01172359767341       -0.03539409234307
C           57.88385892622219        0.00574097296683       -0.03506322170882
C           67.52133232811053        0.01983053748353       -0.01081213126108
C           68.73729217863738        0.02853560574935       -0.00406447369312
Ni          51.84603822715097        0.00894615440410       -0.03989566600927
C           48.43381077993629        0.01245141384973       -0.03780474491502
C           49.10362761320497       -0.76577924446930        0.90814792365470
C           48.43569064521624       -1.52382452017232        1.91763814272427
C           49.39060154264768       -2.22976958381662        2.57010989999957
C           50.63885556478546       -1.90686794358640        1.94898471828050
N           50.45552365771913       -0.97148230180907        0.95676022369839
C           51.84551555095430       -2.51516010785171        2.26955103499064
C           51.84627008674853       -3.60313158301178        3.27399464378721
C           51.11855066718389       -4.77561240171026        3.07399643968413
C           51.14996418348990       -5.76381729291267        4.04530558084729
N           51.84172634196999       -5.64803411881515        5.17432486690091
C           52.53688270885137       -4.53286429635604        5.37343790476195
C           52.57301611553608       -3.49209323811178        4.45891063422101
C           53.05111957577126       -2.14397669988809        1.68926759317496
C           54.29766528286731       -2.79687333561727        1.94933209256196
C           55.25259267834500       -2.08702755103343        1.30105710478302
N           53.23595347299675       -1.07129311927080        0.84693422788084
C           54.58733145037758       -1.00796542251415        0.64349236179442
C           55.25957802049442        0.01145632757705       -0.03560654351525
C           54.58732366366770        1.02916047012311       -0.71722549054034
C           55.25255495640620        2.10773411326146       -1.37554939340310
C           54.29856373279442        2.81217441521041       -2.03116918779150
C           53.05257048310086        2.15714864563123       -1.77385973090415
N           53.23657280779839        1.08869253108542       -0.92605272117327
C           51.84809496801302        2.52301526543557       -2.36026870407130
C           51.85255085635562        3.60408185512401       -3.37202749189867
C           52.58981414748592        3.48778878597224       -4.54997913222606
C           52.56049516839946        4.52357883534636       -5.47037153930401
N           51.86190924626689        5.63872974325181       -5.28357366302411
C           51.15924006108610        5.75914618490671       -4.16185384409955
C           51.12079587077588        4.77628915262390       -3.18538266208384
C           50.64077729815403        1.91736181728979       -2.03689894712165
C           49.39240317242976        2.23928315566620       -2.65839410979070
C           48.43632494056441        1.54151418109444       -1.99879458459261
C           49.10379372068720        0.78742045525329       -0.98614265900149
N           50.45628800296705        0.98884131287041       -1.03825691277448
H           47.37248153708642       -1.50642555180152        2.09479730571562
H           49.27071603116275       -2.90634447408028        3.40032697502420
H           50.54867850747618       -4.91802359550311        2.16351809526062
H           50.59485997491205       -6.68751908410095        3.91054240282039
H           53.08958858105002       -4.46722798071037        6.30607130632965
H           53.14479207726894       -2.59594837115725        4.66860663021636
H           54.41593486016792       -3.68604295501354        2.54669877947675
H           56.31430334441248       -2.26837898791421        1.26111328177256
H           56.31359989006669        2.29218457930330       -1.33147145077528
H           54.41740028840208        3.69939482827983       -2.63131617429460
H           53.16494784796905        2.59151662633233       -4.74972442378396
H           53.12222523547389        4.45396850319638       -6.39727231284131
H           50.60139126975164        6.68261163349013       -4.03722266512430
H           50.54292670182058        4.92311321534146       -2.28070674422511
H           49.27306860707827        2.90980869047898       -3.49357651065494
H           47.37259924897638        1.52668814724721       -2.17324123745930
Ni          62.70162045096699        0.00132817600103       -0.03498466553715
C           59.29181106380956        0.00299490305010       -0.03624906337058
C           59.96509885915047       -0.71411197258483        0.95652107682503
C           59.30556771658297       -1.40801579549995        2.01620036813014
C           60.26025088896311       -2.10324796836228        2.68111083833300
C           61.50088505370981       -1.83554833104852        2.01996488534648
N           61.31414089765235       -0.93810611031931        0.99368322730273
C           62.70066660960463       -2.46393077092793        2.32794397154210
C           62.69997531147762       -3.52994314996125        3.35498729512289
C           61.92883147979355       -4.68176161797522        3.20234322268281
C           61.96301015014438       -5.65337281585912        4.19008310770377
N           62.69730207576225       -5.54028127990666        5.29216043813027
C           63.43259577448134       -4.44394948273861        5.44716020644733
C           63.46927061878688       -3.42085441965406        4.51300700514478
C           63.90121759024017       -2.12952901864705        1.71405293396757
C           65.14418065532597       -2.79127949522916        1.96823854995418
C           66.10026041552950       -2.09213712067323        1.30973220039267
N           64.08825974837005       -1.06892507318488        0.85758240171753
C           65.43908898455223       -1.01521121670904        0.64471171433702
C           66.11207029590898        0.01399822625466       -0.01928091899433
C           65.43772379566923        1.03557025920359       -0.69351579483947
C           66.09645194807356        2.11429020964241       -1.35782840603717
C           65.14167459251202        2.79981653794093       -2.03240696451360
C           63.90184784818082        2.12907919267595       -1.78708772039316
N           64.08873219107466        1.07609667732336       -0.92145739743480
C           62.70419156396078        2.45238685826319       -2.41281594022306
C           62.70880747046827        3.50856087512054       -3.44998701913641
C           63.48959424213918        3.38949918029404       -4.59939022630304
C           63.46064282623423        4.40329342329282       -5.54382913084696
N           62.72216408462004        5.49989425458489       -5.40670152362693
C           61.97706598383181        5.62252999559122       -4.31299825316079
C           61.93463062913614        4.66060041990560       -3.31603628966698
C           61.50422202788113        1.82480226012561       -2.10441838033953
C           60.26414578803058        2.08987076398494       -2.76759578590089
C           59.30774314021927        1.40310396449573       -2.09628343549701
C           59.96605755248174        0.71499427664247       -1.03214700692425
N           61.31559575330174        0.93524014648642       -1.07135076504766
H           58.24744581993811       -1.35941381323614        2.21568822548277
H           60.14521048308084       -2.73803183231668        3.54443210957526
H           61.32376863480022       -4.82201339969909        2.31453293909319
H           61.37511998575108       -6.56122064682787        4.09138602298442
H           64.01922343568539       -4.37972966721358        6.35890865880896
H           64.07459491577026       -2.53926041462485        4.68727450936946
H           65.26093979644713       -3.67544650813079        2.57325241272505
H           67.16181519043074       -2.27503101620906        1.27570994403839
H           67.15572949106841        2.30758552410563       -1.31335331484443
H           65.25749656994689        3.68103867807399       -2.64186366421201
H           64.09834988052678        2.50743710968682       -4.75868422313686
H           64.05649015550803        4.33122618032582       -6.44898347635370
H           61.38724044216208        6.53059821762282       -4.22878953393933
H           61.32130324410671        4.80911689609305       -2.43527701024183
H           60.15005955856137        2.71826919062216       -3.63569938291839
H           58.24932225407873        1.35610494944805       -2.29471326203170
