420
 energy: -730.169437218184 gnorm: 0.000688896572 xtb: 6.5.1 (b24c23e)
C           96.25237261139264       -0.11376631272272       -0.24230656655703
C           96.83532795985820        1.11145325162459       -0.53874129037579
C           96.16042898123104        2.30495495724824       -0.91990115322422
C           97.10151806775670        3.27527624114254       -1.12049591159198
C           98.38132253382754        2.70914294843820       -0.85627555003042
N           98.17019985364685        1.40227293186270       -0.51817687306205
C           99.62915407705938        3.33697932556679       -0.93957618912209
C           99.62943296914536        4.77277236937328       -1.31327052138411
C          100.27765369545205        5.20168247771665       -2.47216524431552
C          100.27578854234531        6.54050189139135       -2.83103991663177
C           99.62597330932840        7.47153736152863       -2.02398575007175
O           99.60125817477085        8.79281615643028       -2.33690962739354
C           98.97781962031893        7.05726316510915       -0.86194185572768
C           98.97906685053340        5.71746989180396       -0.51579562629694
C          100.85690350087320        2.71369291650701       -0.70171846750811
C          102.13355076604751        3.40365086813576       -0.73850484349413
C          103.07601754693324        2.47804026854321       -0.46485153740574
N          101.04446029267145        1.40164804134770       -0.39036217376265
C          102.37501025833292        1.22756090915908       -0.24950131295224
C          103.04108363391451        0.02004299982234        0.03903067416526
C          102.43455640436007       -1.22807152877735        0.27496364575585
C          103.10548714634918       -2.44870221324212        0.55030036291213
C          102.16039647874724       -3.41990211453542        0.73332466920652
C          100.87999432515855       -2.81806886676510        0.58985808337957
N          101.09796369717935       -1.49561579194625        0.30507855374453
C           99.63229824436428       -3.44259154377232        0.69693628661633
C           99.63320391315720       -4.88652029260968        1.03498105601458
C          100.19570124793539       -5.33959527637573        2.23091950182225
C          100.19467048218738       -6.68603659685288        2.54986242042407
C           99.63293885352158       -7.60544554732279        1.66596255333448
O           99.65240353381608       -8.91949561291767        2.00781866605526
C           99.07123283298935       -7.16914581823748        0.46817737683854
C           99.07050867352267       -5.81757868019508        0.16085274900305
C           98.40104401277752       -2.80549193168675        0.51044797793674
C           97.11032620593578       -3.45298875447263        0.68603204148138
C           96.17459630135077       -2.51905390102330        0.42097102109990
C           96.89210733585938       -1.29947711292294        0.09487540460360
N           98.22973964451930       -1.50676414626119        0.16688963499008
H           95.16806962292623       -0.13890005265510       -0.28353237592562
H           95.09146230994691        2.39397305251219       -1.03076439584750
H           96.93055859873498        4.29275629056462       -1.43271638843365
H           98.90808270374809        0.74372762735612       -0.29223630839729
H          100.77295852276563        4.47616135845187       -3.10776692688124
H          100.77563465324361        6.86694005805590       -3.73673096040000
H          100.08420329266265        8.96971595289210       -3.15536313245358
H           98.48105248298891        7.79254492515030       -0.24106229225970
H           98.48686890101146        5.39836124150907        0.39620884082326
H          102.26892624123793        4.45500225265026       -0.93427938236400
H          104.14460596546375        2.60692825583370       -0.40782693584388
H          104.17606262240527       -2.56260810406674        0.60043718259287
H          102.33342303393376       -4.46305931650579        0.94173362635136
H          100.36072583380496       -0.81911258520764        0.13632557150038
H          100.61953221689321       -4.62391523675469        2.92660088381070
H          100.62315087864401       -7.03837952179980        3.48000046812932
H           99.23618871913970       -9.46653678919938        1.32819518195254
H           98.63874857758611       -7.88874215517027       -0.21873923128705
H           98.64491791348355       -5.48079593522005       -0.77786221569058
H           96.96435320220789       -4.47805281230926        0.98676787155942
H           95.10015436247919       -2.61348908691511        0.44482270842485
C          168.42081517176879        0.19374626946839        0.19609318803426
C          167.83695360938964       -1.02177614773375        0.52896806097444
C          168.51431930711558       -2.23238600857179        0.84619217972813
C          167.57179289419494       -3.18211566434071        1.12435608978665
C          166.28796006437165       -2.57905596774009        0.99771240990423
N          166.49897876432667       -1.28154876021350        0.62513050613954
C          165.03714488350960       -3.17353753041044        1.20079295978571
C          165.03364329839468       -4.58868343053659        1.64400918895915
C          164.40658414259082       -5.57004779435781        0.87507146707659
C          164.40464875045163       -6.89532733277286        1.28123600754607
C          165.02922203759985       -7.25387072342033        2.47360390879612
O          165.04963943676177       -8.53965261430629        2.91003370887110
C          165.65576508029156       -6.28342799428581        3.25333241955928
C          165.65820757521209       -4.96421577997717        2.83614846697937
C          163.80888511515374       -2.53155774364629        1.02131243550950
C          162.52602320071625       -3.14107091069364        1.32108638405309
C          161.58596807557237       -2.22233505112289        1.01680880625126
N          163.62685766239903       -1.26112546620240        0.56668682454935
C          162.29459113541620       -1.05145457136962        0.53861424151631
C          161.63320125813155        0.11905439169216        0.11668812212107
C          162.24376837263102        1.32029221046786       -0.28931063181550
C          161.57853323163715        2.48056883929744       -0.76579218981350
C          162.52621673060992        3.42360333720287       -1.05380143539071
C          163.80129885575889        2.86943080439480       -0.75482997492120
N          163.57916549725064        1.59441189950042       -0.30539766235492
C          165.05045973686757        3.48238873950739       -0.90539157063488
C          165.05265524427543        4.88911373380202       -1.37300409222410
C          164.40218597701764        5.88527466452190       -0.64007489087249
C          164.40159956513460        7.19914600027078       -1.07361651874218
C          165.05049597593640        7.53581745316569       -2.26019722351009
O          165.02605316849579        8.83344363074438       -2.65955044727750
C          165.70088110780401        6.55337745578105       -3.00333840905194
C          165.70228654387500        5.24111212573406       -2.55699264923293
C          166.27875727772962        2.86244513137578       -0.65215187571788
C          167.56779773410511        3.52923017414282       -0.75017525529802
C          168.50076801142018        2.60510787426118       -0.44386649045896
C          167.78254431485203        1.37810903230713       -0.14856088377649
N          166.44687280996953        1.57334675977868       -0.27258268808817
H          169.50602190258331        0.21060115503867        0.20860351578433
H          169.58624547278424       -2.35013003800165        0.85082766894328
H          167.74539810405753       -4.21342247665527        1.38557745360606
H          165.75922040371751       -0.61124709702245        0.44432389866269
H          163.93132821006000       -5.29469678358320       -0.05983340357268
H          163.92126534643376       -7.65447320916685        0.67562896313448
H          164.58126315112938       -9.12583779355706        2.30063820711036
H          166.13255201715563       -6.57533304800393        4.18089582876498
H          166.13200746411709       -4.20782266510501        3.45195488760047
H          162.38511367310835       -4.12921556018521        1.72821560906398
H          160.51540994041696       -2.30060885748581        1.11588016476025
H          160.51080002042318        2.57086288578624       -0.88314298285470
H          162.35932189408686        4.41120235658011       -1.45177786530074
H          164.31377860552402        0.94680944757349       -0.03976083196335
H          163.90952494786893        5.62724188820824        0.29080476460510
H          163.90448745543142        7.97387537746461       -0.50302844910746
H          165.50585605126213        8.95553952615628       -3.48978207454364
H          166.20096876820244        6.81913888855329       -3.92854578816158
H          166.19658357047851        4.47530870988912       -3.14431719493321
H          167.71367472552183        4.56697628388572       -1.00381162267538
H          169.57325003618371        2.71532398743716       -0.40437324410066
C          104.44996026143411        0.04477019091262        0.09335232098048
C          105.66626741639143        0.06069393110797        0.13554461783560
C          115.35144261586662        0.13014348788544        0.23021033158666
C          116.56883723065292        0.13435735328080        0.21478337742160
C          126.25773636169413        0.02706452408729       -0.11499237392390
C          127.47574349989077        0.00184925156644       -0.12773504304276
C          137.18114685044432       -0.18206876499275       -0.11218384980575
C          138.39991690449338       -0.17825409795661       -0.11719472237837
C          148.10375959304000       -0.09159485797902       -0.05640070289217
C          149.32136038929690       -0.07812152688846       -0.03368464475033
C          159.00740491645649        0.08484935186638        0.05984583590791
C          160.22398829701930        0.09946962766281        0.08993758401916
C          107.07499997192393        0.06672653883323        0.17915851547553
C          107.71351436042016       -1.13778825722478       -0.17287057609566
C          107.08087294747573       -2.32684463662524       -0.61771673565870
C          108.05486436525878       -3.25318651947927       -0.87372437334353
C          109.31244050194266       -2.65720733636534       -0.58676735633405
N          109.05599620291500       -1.37663814379631       -0.17474291552571
C          110.57672378798615       -3.24674552498649       -0.71512333805212
C          110.60343976076211       -4.67145835500811       -1.12643622103345
C          111.26007574632216       -5.05750409688302       -2.29591973534574
C          111.28490999807407       -6.38619411382361       -2.68960951699402
C          110.65403462072108       -7.35085215013373       -1.90734343512113
O          110.65591612562757       -8.66359515191640       -2.25406563955551
C          109.99764990904431       -6.97982906955965       -0.73514912401678
C          109.97208140563470       -5.65000220784188       -0.35420941884704
C          111.79580045848836       -2.60335001096771       -0.49403645131653
C          113.08278861175526       -3.27210353418732       -0.55045205022680
C          114.01430033187995       -2.33038616630299       -0.29327017398897
N          111.96637586955373       -1.28776587900382       -0.18596236198631
C          113.29590968965566       -1.09119819789129       -0.07440124163955
C          113.94338386778671        0.12334613141214        0.22943306912500
C          113.30612684435000        1.33879314675253        0.54156876316753
C          113.94164720645303        2.56195789493339        0.87692654466068
C          112.96731187381360        3.48598068309990        1.13792780631195
C          111.70602175844417        2.85635235989006        0.95593058102002
N          111.96189094855893        1.55974829148679        0.59705712513040
C          110.44195943291811        3.42747106955987        1.14559494299041
C          110.41902090716211        4.85846221955858        1.54096430142024
C          110.93827156940840        5.83790566478294        0.69094533570951
C          110.91742847014542        7.17334038539287        1.05233575586713
C          110.37962726537707        7.54806279870729        2.28224368494959
O          110.37866466682546        8.86663659325147        2.60729935451494
C          109.86247256589849        6.58194355442256        3.14204228810390
C          109.88100592400984        5.24715054839611        2.76789488053547
C          109.22150251547275        2.76796381332086        0.98978986436304
C          107.93054602269675        3.41099409338219        1.15586975860976
C          106.99897098715790        2.47229689041062        0.88993677829874
C          107.72021894880436        1.26238481591863        0.54960526702334
N          109.05193070862769        1.46785451647623        0.62292011737491
H          106.01695728718981       -2.44788504626999       -0.73998704498547
H          107.91544195149450       -4.25533153471294       -1.24485581830987
H          109.76802134588948       -0.69861498764418        0.07529816699011
H          111.74016646033662       -4.30598044828830       -2.91272826987258
H          111.79102064260586       -6.67866896834260       -3.60338459764828
H          111.14311668956401       -8.81024076720875       -3.07598954270410
H          109.51583844124490       -7.74096328843570       -0.13396630183302
H          109.47412985528182       -5.36489633981649        0.56588485598900
H          113.23224488281393       -4.32301228716253       -0.73824075778528
H          115.08444075146929       -2.44524245260687       -0.23185998209336
H          115.00849936166686        2.70896834368862        0.91617549994105
H          113.10868204796508        4.51099107561747        1.43930322347789
H          111.24913291658335        0.86338622378674        0.40636154540564
H          111.34501117056517        5.54803672119300       -0.27150938494915
H          111.31219271460166        7.93568382629373        0.39211867244666
H          109.97997600039538        9.01476224582499        3.47534427530011
H          109.44902692266564        6.87762077162977        4.10031310677066
H          109.48894135808808        4.49474382065006        3.44305192493532
H          107.77825874529240        4.44339969699925        1.42578834866488
H          105.92555875154579        2.56715578555005        0.91393774578035
C          117.97625785437971        0.11539471105146        0.17861575364595
C          118.56315265099011       -0.84350689485495       -0.66929933186856
C          117.87683333838599       -1.75041405841542       -1.51718234293959
C          118.81165681446689       -2.47027491378067       -2.20965107435527
C          120.09798184080206       -2.02546010879597       -1.80108952765822
N          119.89705816664421       -1.04252787248350       -0.86903224758847
C          121.33496703197564       -2.45976896828532       -2.29300808297039
C          121.29382231040309       -3.54955541397057       -3.30061273611041
C          121.76948821569491       -3.33912406108190       -4.59500238382356
C          121.72750544165791       -4.35395345869903       -5.53854895793719
C          121.21153035038532       -5.60017614275656       -5.19092825165883
O          121.15411457861802       -6.62271387374018       -6.08287074271197
C          120.73517342008269       -5.82421553816646       -3.90052900434558
C          120.77421356593399       -4.80284939939614       -2.96790773150259
C          122.58111239397221       -1.95516117810006       -1.91950377074226
C          123.84089724630152       -2.45792406303723       -2.43555232998046
C          124.81302985467961       -1.74781387929736       -1.82677022760451
N          122.81012991000536       -0.96632810540544       -1.01069400965088
C          124.14886441747694       -0.82440028546411       -0.92995608116334
C          124.85099592341012        0.06107577891942       -0.08684142623295
C          124.26298642145008        0.97649295784639        0.80848520695971
C          124.94651569167306        1.82457978546718        1.71648195732751
C          124.01112421425233        2.54695882497316        2.40585562886791
C          122.72677325913946        2.16204531475773        1.93569768610614
N          122.92941470898974        1.20479664071569        0.97725722726961
C          121.48831166674550        2.64082030894411        2.38192514602906
C          121.53000164465574        3.72333597842914        3.39608081845115
C          122.13947196226364        4.94653922754114        3.10555029946784
C          122.18168630636379        5.95914376061095        4.04745877634789
C          121.61783477946611        5.75652785131348        5.30578480612102
O          121.68227092544363        6.76885844670230        6.20864423506998
C          121.01044334874503        4.54078644315871        5.61139453852614
C          120.96597913467976        3.53516599918607        4.65839390139043
C          120.23996044771867        2.18084485243454        1.95998172441736
C          118.97859351641488        2.74260745858713        2.40769044757946
C          118.00643168810323        2.03384144982365        1.79687803172849
C          118.67402086493887        1.05036423093225        0.96841356674935
N          120.01303805402618        1.16641717596583        1.08010034716283
H          116.80485812285335       -1.82666679180926       -1.59640510792388
H          118.62734561821804       -3.23088824404585       -2.95059780830644
H          120.63838343125268       -0.52548863100993       -0.40815405039837
H          122.15986888555548       -2.36576187296860       -4.87034523058608
H          122.09251218174487       -4.18258329390811       -6.54555189901004
H          121.51528747953219       -6.36221147079077       -6.94080142074893
H          120.34041848742537       -6.79925819799378       -3.64295534343282
H          120.41470677564307       -4.98109593306726       -1.96055334167699
H          123.94826340785231       -3.25399573861190       -3.15430291133931
H          125.87989820340573       -1.82481552448765       -1.95725137675440
H          126.01658109738875        1.86221731467233        1.83553145403253
H          124.19356848345673        3.27052946108090        3.18343070284450
H          122.18910856588695        0.72621372363059        0.47516065247296
H          122.56724940265526        5.10954521789447        2.12257800389508
H          122.64653745044404        6.91094442969939        3.82187627065474
H          121.25565917477908        6.52589431711558        7.04133317490820
H          120.57715058731080        4.38573814000286        6.59367240393215
H          120.50460162648255        2.58469873764550        4.90210131633326
H          118.87158166397317        3.57478883368156        3.08447451347886
H          116.93789876776353        2.14927559316174        1.88140077733026
C          128.88241703212458       -0.03226841453113       -0.12533778844386
C          129.49211912869038       -1.17405337284171       -0.68070729280005
C          128.83235172680543       -2.29385074782270       -1.24774387225557
C          129.78636200368584       -3.14434897982287       -1.73558715554996
C          131.05989910898950       -2.57387297720430       -1.46735887573494
N          130.83140461736522       -1.38793852304231       -0.82162602311024
C          132.30781682710364       -3.08209143215323       -1.84810828609829
C          132.29321949962724       -4.36928241106007       -2.58973153617039
C          132.74574764115468       -4.43367398562217       -3.90751395559892
C          132.72914575673221       -5.63232297820938       -4.60405885214077
C          132.26168841596987       -6.78722322169597       -3.98135410722449
O          132.23022643966527       -7.98236551052461       -4.62554973027284
C          131.80889648354383       -6.73669543605444       -2.66432909995198
C          131.82311932250735       -5.53437402137761       -1.97950275748973
C          133.54320930229466       -2.48686245594214       -1.59075368831861
C          134.81295078726950       -3.06189468862574       -1.99474661506177
C          135.77177290698557       -2.23968573335720       -1.52117540368928
N          133.75356897192199       -1.34050392620412       -0.88496542753118
C          135.09037327626029       -1.17480384549563       -0.81477608995368
C          135.77415873647709       -0.15925137295114       -0.11499609539769
C          135.15907475578121        0.88623425038036        0.60360333098434
C          135.80820642963138        1.85854364049378        1.40518174555613
C          134.85327252867231        2.70555719546373        1.89901451991474
C          133.59141520367004        2.27623405428682        1.40794097880439
N          133.82439888574118        1.16119746007660        0.64746973170648
C          132.34602625959184        2.87554107082533        1.63885781569412
C          132.35624925247478        4.14680131629647        2.40152260199817
C          133.08418520281876        5.24850300441690        1.94378566697090
C          133.09353793336339        6.43662276529866        2.65239510665372
C          132.37556540580766        6.53747194869324        3.84277271202354
O          132.41124493956303        7.71603564632168        4.51593640773374
C          131.64765344574388        5.44704792650817        4.31365460907713
C          131.63790157452328        4.26347893907541        3.59260916088417
C          131.11423280912197        2.37482929560657        1.21358696799269
C          129.85699606441423        3.08193593516527        1.37249742366886
C          128.89743452408734        2.26956304238691        0.88180431364292
C          129.56891831459140        1.07153695064240        0.42210381099369
N          130.90043699215269        1.17294654500670        0.60938770630722
H          127.76380641829431       -2.42615353748738       -1.27922537142106
H          129.62260387533783       -4.07963198539539       -2.24532074324417
H          131.55795545703575       -0.75491081784898       -0.50425728211695
H          133.09875429122209       -3.53295539485952       -4.39719279031504
H          133.07661705389543       -5.67534211129509       -5.63075200953428
H          132.57229637595916       -7.90606514907071       -5.52636490763331
H          131.45172532001180       -7.64310564276165       -2.19134541333642
H          131.48243200205971       -5.49799543485362       -0.95075353860259
H          134.93531965728351       -3.97577519589134       -2.55303427401907
H          136.84046734612852       -2.32855103374009       -1.62422097431362
H          136.86829346095081        1.89184234182670        1.59318669786248
H          135.00803736058276        3.54376309142823        2.55850173918548
H          133.10368092445265        0.61718091781074        0.18529868969297
H          133.63081002700221        5.17653388310809        1.01006465811820
H          133.65016739496261        7.29413938254187        2.29500612466091
H          131.87312519635918        7.68025706635177        5.31815539523648
H          131.09353533068531        5.52849472081966        5.24261842050630
H          131.08169836377283        3.41143631141794        3.96725843530302
H          129.74599232652321        4.07319766959577        1.78132260429647
H          127.83778067653914        2.45244390702221        0.80856350050585
C          139.80711068992329       -0.17135263219806       -0.11338196753003
C          140.45258129463929       -1.33294396441011       -0.58142993627227
C          139.82812722842937       -2.50754217034754       -1.07205167067629
C          140.80731239489592       -3.35749134281603       -1.50787597673035
C          142.06275957159733       -2.73252181933531       -1.27937392167250
N          141.79797089248325       -1.51507986585457       -0.71004898530221
C          143.32577093947177       -3.22913624498385       -1.62354501684075
C          143.35180095488175       -4.55179547731408       -2.29927035659617
C          143.81789204832887       -4.66230620094286       -3.60943150501338
C          143.83815763294282       -5.89007861499604       -4.25274719105596
C          143.39545933958019       -7.02826708952380       -3.58292851752489
O          143.39983031319963       -8.25076661123144       -4.17454475838435
C          142.93166263131965       -6.93203553155771       -2.27231993313837
C          142.90832212889029       -5.70076124099981       -1.64095940266682
C          144.54398195587510       -2.58994782180187       -1.39084879188803
C          145.83261234870196       -3.16707076879369       -1.72751630049919
C          146.76628980877450       -2.29336419898530       -1.29741114241770
N          144.71730425546463       -1.38995622159172       -0.77073293684140
C          146.04892363808992       -1.19007664872755       -0.69184924669986
C          146.69667356093868       -0.09457839566025       -0.08693683844235
C          146.05242308989239        1.01066112907738        0.50278446027080
C          146.67559367008013        2.08770339328960        1.18266316068267
C          145.69618686253636        2.95260613506502        1.58982194636687
C          144.44540252979536        2.42965442146944        1.16463560002046
N          144.71010573660683        1.24737330726337        0.52647447069246
C          143.18039066529047        3.00233095949406        1.35133693429078
C          143.14893979373298        4.34029774122279        1.98951627232659
C          143.82557503279114        5.42109875325177        1.41776662321837
C          143.79674219318284        6.67032516035466        2.01154610860228
C          143.09160254065625        6.85521921606102        3.19949156370548
O          143.08892520135203        8.09260110611842        3.75832699362991
C          142.41458912711585        5.78677614441555        3.78319829200976
C          142.44272405424474        4.54092475496078        3.17668240454362
C          141.96457579689286        2.41824966754429        0.99101864762084
C          140.68476111992669        3.09391730321356        1.09636442219159
C          139.75125477248298        2.20856285377018        0.68917091270402
C          140.46021219944623        0.99683180539334        0.33391831702561
N          141.78847844730626        1.15913941711850        0.50134838241271
H          138.76444956251828       -2.67466038988189       -1.09299794392500
H          140.67170297524336       -4.32795728700856       -1.95638703617187
H          142.50459471486860       -0.83922310067893       -0.43939864944377
H          144.15237832985437       -3.77480595801814       -4.13497152119087
H          144.19504562496763       -5.96892623660085       -5.27407083491614
H          143.74528178321592       -8.20417658858465       -5.07611218406212
H          142.59521106993060       -7.82611377213564       -1.76215462045578
H          142.55909394428315       -5.62851846878394       -0.61700070509329
H          145.98274841393680       -4.11790374741124       -2.21263378564121
H          147.83892767950488       -2.36719618441394       -1.37315109627847
H          147.73646196278898        2.17774081420339        1.34885499066997
H          145.82728123637838        3.86420886926796        2.14951530324280
H          144.00493648780343        0.63282388432126        0.13386244473573
H          144.36191724264577        5.28238700813493        0.48561705576777
H          144.31357133051614        7.51120120785025        1.56578810370841
H          142.56515296323616        8.11135769537091        4.57057075775144
H          141.87037136242435        5.93416397691759        4.70990018051116
H          141.92626370414089        3.70710577295861        3.63898445075327
H          140.54198847177418        4.11393945686349        1.41445646290789
H          138.68612685841674        2.34934393346518        0.60677454815530
C          150.72872902418956       -0.06029491798595       -0.00752100291445
C          151.37753432957558       -1.30287505001431       -0.13954993582067
C          150.75446432459827       -2.56722070745647       -0.29831947177978
C          151.73748659230029       -3.50806521356510       -0.43877657305561
C          152.99239868228963       -2.84639234472839       -0.35401248546269
N          152.72390232397015       -1.51591588481902       -0.17056541815953
C          154.26162134557467       -3.42386680431430       -0.47877190486268
C          154.29890760810304       -4.89105554777618       -0.70438741646171
C          154.83012130043798       -5.40927689045643       -1.88568164163733
C          154.85937530596297       -6.77712301774465       -2.10889392944495
C          154.36032279599794       -7.64594046275479       -1.14129575279382
O          154.37127025979527       -8.99249386529316       -1.31814250380828
C          153.83151205852445       -7.14139120584567        0.04525501883915
C          153.79952727958010       -5.77405521221834        0.25566156047799
C          155.47581709559566       -2.73887377151647       -0.41180169818084
C          156.77209849619294       -3.38737020428113       -0.49392283861146
C          157.69586044218192       -2.41468114744814       -0.35122366659867
N          155.63425949870361       -1.40074307737121       -0.21730676680127
C          156.96398205846418       -1.17646781743457       -0.17361751065588
C          157.59914527064737        0.06459327902031        0.02563053424656
C          156.95087289979526        1.30140136983957        0.20458344020348
C          157.57364895161166        2.54868027575145        0.46623851224210
C          156.59096459127269        3.49287368413721        0.59088124696560
C          155.33821217113669        2.84906326919819        0.40255297492142
N          155.60610421648974        1.52468926066102        0.18049532726679
C          154.06795711382688        3.43793633968368        0.45003610483420
C          154.02796605280437        4.90724555323686        0.64979689769514
C          154.64063740710304        5.76871860281739       -0.26387230716078
C          154.60267808099894        7.13963017814640       -0.08109968212531
C          153.95296601174155        7.67110166332284        1.03151952512480
O          153.93906813982156        9.02028547525536        1.18292519614248
C          153.34049675190732        6.82468979708354        1.95294335481221
C          153.37718716375144        5.45305632363329        1.75716559552743
C          152.85470151536376        2.75837388010819        0.32776531364684
C          151.56216811599549        3.41769995580731        0.29106958433136
C          150.63870893182983        2.44170254497864        0.16783559178324
C          151.36710584760351        1.18990634367854        0.12450438614739
N          152.69468526741019        1.41083027135585        0.20868912926428
H          149.68953581787378       -2.73064057527836       -0.30640198699892
H          151.60552441581865       -4.56605271716383       -0.59587039346122
H          153.43017000498301       -0.79292924869871       -0.08221817814901
H          155.20827053055382       -4.73302696389116       -2.64422765104359
H          155.26670406532727       -7.17412469484266       -3.03257011664516
H          154.75975681464317       -9.23233020117988       -2.17012925260425
H          153.45166072945273       -7.82883037707994        0.79089458944803
H          153.39934416451902       -5.38266268306416        1.18429837661985
H          156.93255815332870       -4.44492366137395       -0.62741840190072
H          158.77011938830586       -2.50323056210050       -0.36123429575626
H          158.63729399490148        2.69623797763876        0.55987986611120
H          156.72119519192182        4.54005964836544        0.80986956772760
H          154.90018513985996        0.81091826974051        0.03400965207979
H          155.13369408770984        5.35720187392579       -1.13758850213395
H          155.06978015621576        7.80971252247208       -0.79221945535544
H          153.45856363846636        9.28050640105943        1.98030805196535
H          152.83925537321329        7.24238514783898        2.81950860870508
H          152.91099600818774        4.79470517164432        2.48170177441793
H          151.40388516686463        4.48321065470010        0.33112210666700
H          149.56771660904886        2.53809201426654        0.09240268835609
