209
 energy: -340.470155408270 gnorm: 0.000457996857 xtb: 6.5.1 (b24c23e)
Zn          33.45407196631052        0.04113466965343       -0.04351978128538
C           30.04392595803532        0.07268143009165       -0.04891305166718
C           30.66950468493586        0.99838707764137        0.77776466332570
C           29.99143670945098        1.92088938595930        1.64387669649818
C           30.94739333607211        2.64307254442739        2.28087544823766
C           32.22204554588873        2.17953145591351        1.80083206354863
N           32.01809195297548        1.17587216664913        0.89950602294468
C           33.47102077043567        2.66617745490209        2.20984304571660
C           33.47761823993994        3.78701120122129        3.18046786405249
C           32.87180596853034        5.00736522044367        2.86877831922739
C           32.88119204880633        6.05326230836883        3.77240194314351
C           33.49354076661910        5.90736966056138        5.02299043232120
N           33.42724986880699        6.96516002512219        5.91937473705553
C           34.42412935038362        7.07314179388139        6.97649811652135
C           34.08766842323654        4.68430698728316        5.34610789378528
C           34.08364751322513        3.64594154293981        4.43005838171886
C           34.71173180452156        2.18152731398062        1.77955724944648
C           35.98839815882195        2.72409385700796        2.15296011876864
C           36.93813809451679        1.98458197590560        1.52445208065928
N           34.91051108156599        1.13416304852188        0.91897728096926
C           36.25253363612624        0.99014901325695        0.75358828919702
C           36.88840893204600        0.01649117407078       -0.04409311282055
C           36.23811152626985       -0.94992210602713       -0.83889744111248
C           36.90861668101437       -1.95810362135151       -1.60509030951944
C           35.94771797909052       -2.68793823080760       -2.22796501280785
C           34.67934280203285       -2.12466647489197       -1.85703421372944
N           34.89399130664248       -1.07533609095328       -1.00258802934679
C           33.43121912688326       -2.59253606462199       -2.28439157044903
C           33.41987947106645       -3.72433586920052       -3.24218684562754
C           34.02944857100697       -3.60973693533457       -4.49270162315679
C           34.01921919389802       -4.66091401386672       -5.39404076219981
C           33.40679349686999       -5.87041948523306       -5.05452387691216
N           33.32793186030717       -6.94048846070555       -5.93527030631821
C           34.32675209836336       -7.07803370374492       -6.98718320426204
C           32.78928017744868       -5.98912400433382       -3.80360655824609
C           32.79419851767326       -4.93055203617878       -2.91489913151355
C           32.19003684473182       -2.08115540614909       -1.88190412512806
C           30.90892448578411       -2.52428886980589       -2.36384631521249
C           29.96402878397742       -1.78034132260800       -1.73538114279529
C           30.65558866446026       -0.86590545291759       -0.87145828130333
N           32.00120645045826       -1.06850407949504       -0.98734296674695
H           28.95819850007534        0.08271474854371       -0.05111884675519
H           28.92017695455096        1.99140197787311        1.75122079825871
H           30.80529756245212        3.41347127185193        3.02182211466637
H           32.40941600612402        5.14137643763445        1.89685623274982
H           32.41345194319106        6.99764054424972        3.51429203769178
H           33.25660393451315        7.85255834422351        5.46139197004487
H           35.44321968986669        7.01450567580328        6.57725596051083
H           34.27956246112146        6.27827755272928        7.70932176695085
H           34.28601061625253        8.03382116660182        7.47266450950274
H           34.55166463463522        4.53458361432436        6.31330536460024
H           34.53962138996685        2.69853471304794        4.69676650616696
H           36.13823231373832        3.57267979199569        2.80098635901333
H           38.00932183577862        2.10210012245511        1.56806709003900
H           37.97797043686229       -2.09118919599937       -1.64894923600528
H           36.08490126151995       -3.54246903689577       -2.87094918954492
H           34.49998694672448       -2.67312655706657       -4.77193692810738
H           34.48682408368131       -4.53184086384989       -6.36248064534115
H           33.14424097883167       -7.81839170422576       -5.46417711314056
H           34.19354465066971       -6.29423673195028       -7.73396552554064
H           34.17918599720782       -8.04545863836350       -7.46723041828623
H           35.34519905908650       -7.02414515821239       -6.58565382805277
H           32.30663913029262       -6.92252781315478       -3.53327679358899
H           32.32774880047000       -5.04353101809572       -1.94223534477238
H           30.75555088444383       -3.29670508454928       -3.10044411675773
H           28.89208007687964       -1.83176174988314       -1.84662536325851
Zn          65.55088779771800        0.01552883624250       -0.01210732745641
C           68.95950474781421        0.05338052310224       -0.09877376376612
C           68.33430227013346       -0.96315835024410       -0.81109879367434
C           69.01297923235127       -2.00058458751932       -1.53512854305303
C           68.05718712648972       -2.79012889107354       -2.08670329504614
C           66.78176895127035       -2.23659540687847       -1.71666842850960
N           66.98547022715692       -1.13673305626611       -0.93553381627044
C           65.53288246649986       -2.75681967760155       -2.08192274267523
C           65.52561981262410       -3.94590289359760       -2.96779958390102
C           66.10469906828196       -3.89435056551396       -4.23877222604566
C           66.09210863555050       -5.00054260559330       -5.06747259776820
C           65.50364638911168       -6.19877029880170       -4.64540724990708
N           65.56506563863307       -7.29923485551246       -5.48940987267079
C           64.58343653838459       -8.36668196381911       -5.34788408926472
C           64.93766377312596       -6.26111898488704       -3.36908437693771
C           64.94419403647005       -5.14433906899289       -2.55041187627968
C           64.29238560157557       -2.24695068181530       -1.68127063312372
C           63.01440339200236       -2.74510823141749       -2.10818762632086
C           62.06525261147163       -1.98024564905917       -1.50986257460442
N           64.09467773873065       -1.18037049964868       -0.84441101492729
C           62.75237633019101       -1.00208645982040       -0.71975486390249
C           62.11766642043358       -0.01543811355068        0.06264810576291
C           62.76873771570899        0.97783987560503        0.82296156627627
C           62.09997709750679        1.93841961949624        1.64931448467631
C           63.06087973039762        2.71725386346657        2.20979825622910
C           64.32722393448529        2.24715252159641        1.72093533719659
N           64.11182849494666        1.18021647990094        0.88880396283483
C           65.57469381535036        2.78385566496863        2.06086332957588
C           65.58547670101105        3.97152486408017        2.94818351846708
C           64.94736060614174        5.15354012316628        2.56815763720647
C           64.95612855613184        6.26885090943297        3.38875663469860
C           65.59681564175632        6.22175300924961        4.62991962963634
N           65.67537936288608        7.32261122853767        5.47197502989385
C           64.65580887298577        8.36047951677498        5.39175715841200
C           66.24319218596014        5.04065672162199        5.01383701219782
C           66.23874649385971        3.93580820100537        4.18333616202665
C           66.81495979603514        2.29298551985709        1.63073263920155
C           68.09447402297974        2.87708393092518        1.93337532581528
C           69.03867867072469        2.10960978912420        1.33278315755254
C           68.34804683614402        1.05552116683256        0.64527027285387
N           67.00372333686738        1.19746824124666        0.83967379397732
H           70.04484261008329        0.06624605977168       -0.12676801018756
H           70.08470376451942       -2.10769667432457       -1.59854930088631
H           68.19987152920022       -3.67823163890302       -2.68138764156027
H           66.54811894476700       -2.96761644868069       -4.58656557471909
H           66.53835487811452       -4.94405107738354       -6.05486186018162
H           65.71061971679698       -7.03849413832035       -6.45750816992975
H           63.55948776595017       -7.97565935799011       -5.34937256708521
H           64.75719681665063       -8.91382912395014       -4.42040921184740
H           64.70865648010147       -9.05254393263890       -6.18576882484832
H           64.49345579892400       -7.18010377467234       -3.00666077101944
H           64.50961857108028       -5.20827134810900       -1.55860489490797
H           62.86308563477078       -3.56563879728527       -2.79106505131583
H           60.99338429186340       -2.06090887257153       -1.59783544277863
H           61.03191924104963        1.99757741608388        1.78684592077532
H           62.92501759971661        3.52968920798541        2.90547066648421
H           64.45503793467677        5.20633190486498        1.60304503166159
H           64.46533051027997        7.17489408794944        3.05502818137266
H           65.88514827035205        7.06500287941954        6.42909226134050
H           64.75642510555848        8.91189457890635        4.45605345478036
H           64.81154936959901        9.05030895555245        6.22123039901555
H           63.64587734042658        7.93928090493762        5.45525758556950
H           66.74792476592762        4.99638079931180        5.97328084145304
H           66.72748319218103        3.02179605035024        4.50287186308055
H           68.24727673833981        3.76963911301539        2.51878286762098
H           70.10937806189720        2.24241405206269        1.34007017143554
C           42.09052462433078       -0.00529536517911       -0.04267303818830
C           40.86172658194602       -0.00268513120522       -0.04481708852198
C           39.51769820181454        0.00181626493375       -0.04623146629153
C           38.29317800865805        0.00795648367809       -0.04531246111410
C           43.43442505052148       -0.00605853176979       -0.03750979911968
C           44.65907622344642       -0.00493805247794       -0.03106077467778
C           58.14463594487577       -0.01710109978085        0.09248121507976
C           56.91577536033553       -0.01290049309054        0.08848911457373
C           55.57195545634674       -0.00835442569628        0.07823613037177
C           54.34739944966547       -0.00398658181123        0.06583945481265
C           59.48862541190220       -0.01933908121232        0.09000362856420
C           60.71306722897905       -0.02004690172705        0.08253693538663
Zn          49.50299725205817        0.00148838055061        0.00886020210931
C           46.06323658584780       -0.00304167667715       -0.02081013143396
C           46.71528910966124       -1.01415107374713       -0.75653035259075
C           46.04626721848373       -2.05708014293198       -1.47504622478003
C           47.00888154994196       -2.81943694141532       -2.05558596660540
C           48.27553292676155       -2.24209588646930       -1.70423555868645
N           48.06010146991479       -1.15136041391033       -0.90422588724555
C           49.52517497353907       -2.73215062276023       -2.10149500464208
C           49.53632549199228       -3.90273485620700       -3.01219090280238
C           50.14026129119824       -5.10260969864390       -2.62646413561246
C           50.15437095044462       -6.19235436066402       -3.47650200952966
C           49.57489786856744       -6.10995638984287       -4.74851150984939
N           49.57534015359784       -7.24361029462883       -5.54924423226081
C           49.44577571689167       -7.10314120004892       -6.99343504978116
C           48.96254516864590       -4.91497884677377       -5.13642693252614
C           48.94551939042271       -3.83106540737749       -4.27478323359490
C           50.76667889866067       -2.21297523453244       -1.71522577258936
C           52.04201390822119       -2.68740671093103       -2.17290491398701
C           52.99241565034479       -1.92688822006452       -1.57013831348429
N           50.96483235411296       -1.16290571720263       -0.85841621120211
C           52.30710121615794       -0.97471470532111       -0.74859662313666
C           52.94338435770289       -0.00102302354613        0.04894604831341
C           52.29080108604042        0.97637873936931        0.82847409080134
C           52.95883495887333        1.93182847277734        1.66037306923328
C           51.99629683157897        2.69892298801172        2.23498464636604
C           50.73091253538749        2.22430368603947        1.75047134641025
N           50.94674765207331        1.16816727106038        0.90558358952464
C           49.48157964383358        2.74800025400144        2.10469279307896
C           49.47257730293847        3.93159600851583        2.99794035548987
C           48.84121799978496        3.88542596623338        4.24202268915543
C           48.83024507453680        4.98658644668324        5.08157651671643
C           49.45568907773858        6.17364091000790        4.69015543559856
N           49.42624090324330        7.32457528689038        5.46474933404342
C           49.23712483954152        7.21848628147292        6.90521844472069
C           50.08043184942070        6.22895367980434        3.43824756544560
C           50.09285866765745        5.12258178689774        2.61008689561078
C           48.24030304763166        2.25282657997463        1.68709678730390
C           46.96601457635991        2.83035947058456        2.00958645528690
C           46.01581487843207        2.05960128659253        1.41983313236237
C           46.70017141815708        1.01249268250873        0.72229888791888
N           48.04180079506138        1.15464373512192        0.89277543296084
H           44.97677469191736       -2.18876543854385       -1.51860568353897
H           46.87389457693961       -3.70401310580724       -2.65695572449392
H           50.58611770476298       -5.18363164415326       -1.64104016073201
H           50.61710475670141       -7.12139248423240       -3.16024430957253
H           50.30048259920517       -7.90215096917265       -5.29102578956384
H           48.43829956261290       -6.77152946690467       -7.24782022150918
H           50.17297579842703       -6.38884373605768       -7.39629116273157
H           49.61461617576109       -8.08152489259450       -7.44339719541948
H           48.49756228664449       -4.82352798503327       -6.11043450298678
H           48.48332586922992       -2.90329931814273       -4.59461364721153
H           52.19131121639644       -3.49020149601473       -2.87691851613821
H           54.06359264298735       -1.99389146142170       -1.67571456847609
H           54.02742609123923        1.99692992008910        1.79071302917590
H           52.13107427458763        3.50575320657706        2.93733553081294
H           48.36794161393466        2.96450912415687        4.56534204434357
H           48.33223061694269        4.91510542720113        6.04076352653462
H           50.15994527230166        7.97863971955184        5.21992806471265
H           49.94722964489408        6.51497930827217        7.35489253174524
H           49.38683275955469        8.20760565809608        7.33816693583173
H           48.22000819586673        6.89174630005744        7.12551314789429
H           50.55571319342341        7.15079632768667        3.11961103798041
H           50.57161903614159        5.18367095630894        1.63879229644026
H           46.81707519170684        3.72069530300792        2.59896773037655
H           44.94543243438056        2.18906209493178        1.44347701583590
