126
 energy: -240.641209693329 gnorm: 0.000539656735 xtb: 6.5.1 (b24c23e)
Cu          17.01515650917418        0.02933891749339        0.01483923839066
C           13.61041282087164        0.01887691966358        0.17467131201052
C           14.23759054129043        1.25047086855387        0.28867701394459
C           13.55607160898569        2.50753976472532        0.41389300686562
C           14.50989880870281        3.46581066527191        0.51384840535653
C           15.78400048083786        2.80005195718815        0.46690354839175
N           15.58714016352404        1.45807104613492        0.31516201285594
C           17.02727964097289        3.42763521737413        0.56942584432888
C           17.04009195323271        4.89451028978853        0.79384144251483
C           16.45019581729746        5.44605275116149        1.92754047119044
C           16.46656580418655        6.82504147065283        2.13378057311073
C           15.82442291092583        7.35166465238130        3.36413804622087
O           15.90996935951206        8.68457510246736        3.48497246294867
O           15.27420258767413        6.66897758144097        4.18994416507717
C           17.07300388455907        7.66493671711581        1.19979755291593
C           17.65976840770728        7.11854289222607        0.06915122780947
C           17.64681591981342        5.74581361051576       -0.13320525561571
C           18.26343408228676        2.78248592995055        0.48308290149909
C           19.53293668451673        3.41345096183164        0.70565926837315
C           20.48436296664160        2.46164984268502        0.53151927170296
N           18.46237124795460        1.45953976637948        0.19147523528258
C           19.80766739299559        1.24523402696552        0.19790471271561
C           20.45185278145310        0.03335620142530       -0.11047844124656
C           19.78893030399142       -1.17608570926014       -0.38874775078983
C           20.44134446925896       -2.38581286474416       -0.78801345019438
C           19.48127069018275       -3.33799287130673       -0.90423157818404
C           18.23126537491569       -2.71456781180544       -0.57586442350940
N           18.44820040146377       -1.39354758835623       -0.28736837554720
C           16.99558183615214       -3.36584891086962       -0.55923916428779
C           16.99474253673535       -4.83234794202671       -0.78777446404788
C           17.68352546235636       -5.68057557523255        0.08255845615055
C           17.68166647294517       -7.05385463381595       -0.11811470188461
C           16.99620023839698       -7.59758353065676       -1.19150728194490
C           16.30616010284050       -6.76065110830619       -2.06990316179107
C           15.58557468055524       -7.38218074174006       -3.20889437551940
O           14.93252069556556       -6.49890304692250       -3.97846221220600
O           15.57209947094519       -8.56410098517189       -3.44084031809747
C           16.30520068382058       -5.38205550212084       -1.86636808217584
C           15.76357467733788       -2.74660154872273       -0.33784491506448
C           14.49542072985505       -3.42080908984460       -0.26395915777188
C           13.54968978836308       -2.46956891569005       -0.06566731230947
C           14.23186470188670       -1.20837028889905       -0.00269285964031
N           15.57353622822250       -1.40637800108348       -0.16249936655218
H           12.52667209147972        0.01494855911792        0.22878206656115
H           12.48420922954418        2.62773942188189        0.41355465864394
H           14.37037558356619        4.53111607475909        0.60286813153404
H           15.98620020170774        4.80777762232739        2.67152421650788
H           15.47035399662722        8.94793732749657        4.30971778684031
H           17.08246970023597        8.73615567974146        1.36041337149492
H           18.13052874178466        7.76548139821875       -0.66246255185739
H           18.09835790991652        5.32585643398859       -1.02513279679912
H           19.67434491153155        4.44590796855838        0.98153510521531
H           21.55174709938650        2.56607754765284        0.63158190900123
H           21.49814507467152       -2.48417631285493       -0.97218412269984
H           19.60304136594231       -4.36606916517595       -1.20483358700958
H           18.21075799297640       -5.25750846228111        0.93037120542498
H           18.21649627128520       -7.69951077086576        0.56909862863555
H           16.98439040941621       -8.66796237520665       -1.36327781960167
H           14.49090742945878       -6.98310273544110       -4.69495025971083
H           15.78028310459723       -4.73381395921699       -2.55803622614322
H           14.35500820763832       -4.48682648994544       -0.34321316806276
H           12.48394152758489       -2.59737146557122        0.04031310102353
Cu          27.92773989560970       -0.03256805849745        0.00442446761125
C           31.33248052658692       -0.07481526036346        0.15895881327122
C           30.70530312072705       -1.27623321495793       -0.13500065570544
C           31.38682334910538       -2.50538960269193       -0.42667482336418
C           30.43299698888052       -3.44385466128572       -0.64475160422750
C           29.15889714210616       -2.79919163501526       -0.47198157123388
N           29.35575379443347       -1.48111569241364       -0.17768299916686
C           27.91562690181617       -3.42590204143150       -0.57975617816542
C           27.90286860560072       -4.88574634116740       -0.84612089140759
C           28.49295297959368       -5.77689905090668        0.04555849431260
C           28.47633743147358       -7.14775466695331       -0.20915324769374
C           29.11718548030781       -8.04704954871669        0.78287176963995
O           29.03292095657254       -9.34632481510655        0.46161620333948
O           29.66871170565229       -7.67089605766740        1.78541842744415
C           27.86993160264141       -7.63705696027055       -1.36602887700454
C           27.28310407700069       -6.75175490572417       -2.25657685533394
C           27.29608841131301       -5.38809921884370       -2.00011678492095
C           26.67946966925291       -2.78788163048710       -0.45091629193737
C           25.40996565922833       -3.45693625222862       -0.44633418703212
C           24.45853878019343       -2.50039097213957       -0.30049042502254
N           26.48052984384440       -1.44217220887285       -0.29505991085961
C           25.13523308491498       -1.24168509780821       -0.21908519746183
C           24.49104484024384        0.00449965827728       -0.11531580619036
C           25.15396623369888        1.23855988880445        0.01613497357047
C           24.50155030065974        2.51235578684785        0.03330041447839
C           25.46162317753596        3.45036733884029        0.23402183647534
C           26.71162850949367        2.75393265965044        0.34108028424329
N           26.49469603775624        1.41106071319798        0.18290152041750
C           27.94731017567066        3.36417226746511        0.56923266540770
C           27.94814847517377        4.82500853478222        0.83154083974346
C           27.25936246661365        5.34295799650348        1.93094687937291
C           27.26121855522529        6.70658471185034        2.18918589134980
C           27.94668657403184        7.57069645611472        1.35185610881581
C           28.63672912138086        7.06605478721959        0.24851178956312
C           29.35730498376456        8.02511107095879       -0.62545908170063
O           30.01037810782230        7.44116000854250       -1.64103300162079
O           29.37078299811444        9.21804478743485       -0.45919560774755
C           28.63769186231853        5.69646867946403       -0.00875562697761
C           29.17931580415258        2.70657765347777        0.57653097887118
C           30.44746883089517        3.31981071091018        0.86629323455546
C           31.39320047784987        2.35591954472361        0.74345747569571
C           30.71102571374116        1.14315910809932        0.39160658349803
N           29.36935443589928        1.38246215180989        0.30512216191856
H           32.41622152799174       -0.08875001676971        0.21138603683952
H           32.45868573647550       -2.61890505510331       -0.46620116355911
H           30.57251898218341       -4.47993560382276       -0.90807276758954
H           28.95672993875944       -5.41624090100173        0.95717030309890
H           29.47322354304871       -9.86423818125190        1.15496996002876
H           27.86035446770322       -8.70208841319505       -1.56354961538729
H           26.81234239846191       -7.12466653664013       -3.15919795275109
H           26.84463166897129       -4.70016783347476       -2.70632209184082
H           25.26855630563393       -4.52290944167193       -0.52232653934440
H           23.39115387034287       -2.63174462201012       -0.23997198395549
H           23.44474937196980        2.66541199622309       -0.10871217250628
H           25.33985154708707        4.52026599167586        0.28520061012276
H           26.73212995449931        4.66648867698040        2.59439356111384
H           26.72638440613100        7.09277206764787        3.04941186962294
H           27.95849090443300        8.63856229128240        1.53861465969594
H           30.45199609675720        8.13258245074658       -2.16039345408679
H           29.16261210005313        5.30929077369362       -0.87403729626291
H           30.58788046663369        4.35337472030205        1.13909353065040
H           32.45894882082887        2.44216350219116        0.88532798224451
C           21.86264740576240        0.02735284131364       -0.13351270665792
C           23.08024993159371        0.01768693104259       -0.13513413904530
