195
 energy: -358.030115369936 gnorm: 0.000979841268 xtb: 6.5.1 (b24c23e)
Ni          26.91411312401447        0.00441759222316       -0.04186787294363
C           23.52149271868775        0.06783034364095       -0.15542615884861
C           24.18934145870140        1.27311082685702       -0.10303234353576
C           23.52466715097980        2.54013328972787       -0.07361833098751
C           24.48606344019613        3.47844949228547        0.08780762733102
C           25.73949131854538        2.78390995588059        0.14234054089309
N           25.54791666609426        1.43146452625430        0.01168479415656
C           26.95819535684667        3.40552381780144        0.38173253135890
C           26.97559903042364        4.87373485570942        0.58670932670460
C           27.34180760199339        5.40760597279078        1.82539408861236
C           27.34803028329340        6.77549331659853        2.01997160729095
C           26.99392445349554        7.63985016467968        0.97878447908024
C           27.00824507079904        9.09579538161561        1.21180528185048
O           27.30933893816323        9.60217216311011        2.26212214108369
C           26.63292862205049        7.10676693905573       -0.26081677015954
C           26.62177403221555        5.73653032007751       -0.45357767338182
C           28.16048484225314        2.71352679236822        0.43434543052351
C           29.43004867572301        3.34651025731329        0.62760936601878
C           30.37118514353967        2.38043163121996        0.50561557234767
N           28.32360811058836        1.36533827821698        0.20784897949064
C           29.67575139874195        1.16212117159933        0.23682060651607
C           30.32934404808719       -0.04805011558300       -0.01333331174415
C           29.64210440479532       -1.24151477825882       -0.25154861228248
C           30.30203108672574       -2.48092841431700       -0.51262525215496
C           29.33445126842589       -3.42387933917992       -0.60787963829001
C           28.08526876076836       -2.75663091961611       -0.39868316886827
N           28.28478944378636       -1.40756644423006       -0.21111011128812
C           26.85852075992900       -3.40712905804209       -0.37921309357926
C           26.83361055040958       -4.88138516666328       -0.52171050440642
C           26.18763047040668       -5.47257642093407       -1.61100304776448
C           26.15965934973361       -6.84913142298184       -1.74659514294539
C           26.77340786743905       -7.66263236499515       -0.79118603993510
C           26.75215461169639       -9.13226445476792       -0.90911671373339
O           27.26344490103409       -9.87497805239550       -0.11086399708855
C           27.41949106253525       -7.07111739156047        0.29938515718899
C           27.45204428486586       -5.69616193707766        0.43118137400618
C           25.65149180861440       -2.73281439159644       -0.24433040780491
C           24.37418798393053       -3.38278397975745       -0.19452172916857
C           23.43927214007123       -2.40564213087012       -0.14571981313862
C           24.14617713763037       -1.16149343345849       -0.14806891815522
N           25.50241224474526       -1.37044744374205       -0.17881141890384
H           22.43846703431058        0.08769357249274       -0.18867394686957
H           22.45733173795940        2.67194638171256       -0.15196805355950
H           24.36874136402639        4.54615968261090        0.17646562475071
H           27.60617377230352        4.73897572519683        2.63677095444065
H           27.62449168646656        7.19864207047944        2.97972113889888
H           26.71258189832461        9.70171477602730        0.32886284240816
H           26.36093577988182        7.77060123375818       -1.07502957744718
H           26.35116316763144        5.32534588977702       -1.41955954362784
H           29.57328167543915        4.39813284031739        0.81432680931220
H           31.44277979842678        2.47039764470348        0.57982885942601
H           31.36947824441743       -2.59797469132614       -0.60669891932400
H           29.44567771463075       -4.47672582917074       -0.80909856913928
H           25.71997279245445       -4.84313839786148       -2.35974775616298
H           25.65998925419997       -7.29961246917110       -2.59806142910998
H           26.21856396313420       -9.50977140026835       -1.80742382219468
H           27.89078995145837       -7.71102245161205        1.03763378826315
H           27.94332483690066       -5.24082876603110        1.28360679559674
H           24.22545604305165       -4.45028433661270       -0.19267720537904
H           22.36568960372749       -2.49814691285845       -0.10579455236471
Ni          64.06376790013873       -0.02296288828942       -0.05862694051303
C           67.45679362851961       -0.06957867961385       -0.16842032511259
C           66.78961728807268       -1.27081235530026       -0.28396357446836
C           67.45521202012930       -2.52987308321628       -0.42488885670031
C           66.49407002186260       -3.48177690082286       -0.39558596736241
C           65.23981016867226       -2.80142986079615       -0.25283164398982
N           65.43079663300935       -1.44376467405850       -0.19671081988580
C           64.01980166190255       -3.44984619887784       -0.11177221550194
C           64.00117723564972       -4.93233378202039       -0.11317857713760
C           63.62398437969778       -5.63353338083585        1.03546400194837
C           63.61513480177453       -7.01520827339571        1.03661379426584
C           63.97742552654183       -7.72605673454469       -0.11230263690296
C           63.95994174595842       -9.20024582208072       -0.08567837457509
O           63.64837323406181       -9.84826502174363        0.88037168198620
C           64.34945218125615       -7.02544430604088       -1.26202989079881
C           64.36331277998414       -5.64176928938594       -1.26096852670304
C           62.81597906027717       -2.77140088566433        0.02116274878710
C           61.54500088573926       -3.42510624614006        0.10542780715172
C           60.60369483940206       -2.45152668378531        0.10172264592029
N           62.65354530804316       -1.40486109428898       -0.01896965176257
C           61.30055685157059       -1.20771625554325        0.01602823615047
C           60.64839765832699        0.02594723872862       -0.06703416685575
C           61.33654781473573        1.24147643555583       -0.11228471594646
C           60.67755039203143        2.50625107438082       -0.18926911862265
C           61.64460812052673        3.45259025672223       -0.12913161947786
C           62.89263314545522        2.76107498477508       -0.01186599080371
N           62.69304045154979        1.39934340592659       -0.03148975886201
C           64.11900769819465        3.40133737188106        0.10911727959293
C           64.14295688394172        4.88066482799789        0.18356386006638
C           64.78805835965557        5.62457179471529       -0.80830475836204
C           64.81267873919290        7.00632654143914       -0.74354481313797
C           64.19636777565594        7.67171662663464        0.31884395651010
C           64.21243222265069        9.14311011294288        0.41337135042039
O           63.69884441767044        9.76162231880624        1.30996399863941
C           63.55182863688651        6.92726042995542        1.31232326527953
C           63.52256948192133        5.54759004238504        1.24401815203292
C           65.32595366313620        2.71460942298879        0.14474426798078
C           66.60314900641177        3.35071878800611        0.28843315639938
C           67.53828613394053        2.37718864792259        0.19380572678920
C           66.83161867863659        1.14629885422435        0.01152005312814
N           65.47537788896888        1.35722231628448        0.01092136479907
H           68.53987802800164       -0.08422632990906       -0.20258494655742
H           68.52294246307864       -2.64942177641662       -0.51647122227096
H           66.61190926561893       -4.55160997760826       -0.45232159535157
H           63.35281836646503       -5.08453323534701        1.93009212325579
H           63.33012860262830       -7.56798581108470        1.92532587527192
H           64.26195525669797       -9.67704502414896       -1.04256264752884
H           64.62763883986010       -7.56931902593837       -2.15892409339723
H           64.64233305762330       -5.09997189410914       -2.15764042873199
H           61.40140838301960       -4.49244974047636        0.14366237665951
H           59.53124132507867       -2.55078553350189        0.14568014359516
H           59.61098981230739        2.63653416374182       -0.27567353936434
H           61.53384238353849        4.52379772587229       -0.16870529161182
H           65.25720278365708        5.11099585593895       -1.63996373006578
H           65.31131086509143        7.57632397073443       -1.52076367805440
H           64.74533627707186        9.64757563673609       -0.42072953761137
H           63.07856355420756        7.45268320381179        2.13485603518043
H           63.03186187856801        4.97263006403747        2.02114929743053
H           66.75159128463444        4.40662169984143        0.44565475834307
H           68.61185688331418        2.46321189959657        0.24650881556009
C           31.73427227241820       -0.06537794458008       -0.01539275888850
C           32.95856074080235       -0.07123222675215       -0.01509204552618
C           34.30179310131479       -0.07547904781056       -0.01054947409600
C           35.53232930745668       -0.07327933374034       -0.00286843054577
C           36.87065887258982       -0.07189522267692        0.00260693378232
C           38.10102273817481       -0.06220426319756        0.00933810048611
C           39.44394942537708       -0.05489239870768        0.01290513709944
C           40.66843115675827       -0.04653955274633        0.01634987514690
C           50.30990087659602        0.02293488312142       -0.13907227106447
C           51.53415547256076        0.03386845647184       -0.15454549395309
C           52.87724336394172        0.04384752899823       -0.16314216673787
C           54.10773029883484        0.05110557976454       -0.16062848640728
C           55.44615413207919        0.05385767674241       -0.15310565732927
C           56.67651435582917        0.05454313571567       -0.13835235922391
C           58.01965096400876        0.05091640992477       -0.11643307610855
C           59.24363617225830        0.04335992806261       -0.09342585320181
Ni          45.48981489068765       -0.02250143425788       -0.02056113246253
C           42.07250606375711       -0.04021020428286        0.01402399110714
C           42.74201375984493        1.17136674463546        0.21185594919181
C           42.06818048742906        2.41661419755048        0.39639120870923
C           43.02102369919582        3.33424155976622        0.69023616835150
C           44.27391156508624        2.64290031028145        0.68906463922255
N           44.09429114355559        1.32043138948313        0.35362329231035
C           45.48416877867858        3.23215917336883        1.03164483096677
C           45.48002972215829        4.63791485198798        1.49827076375647
C           46.16905316806254        5.62338895674834        0.78514888435829
C           46.16311511961851        6.93359286749773        1.22356578433967
C           45.47431767724071        7.28698023633632        2.38853458679095
C           45.48813221258730        8.69146154183838        2.83832877198008
O           46.06316426531604        9.57443513574484        2.25548965090456
C           44.78717315172616        6.30259538290529        3.10269990620203
C           44.78715101557908        4.99204622146024        2.65911792094750
C           46.69809958685531        2.56247749165703        0.95131296708821
C           47.95258630355360        3.13369745985957        1.33622845439173
C           48.90920683070826        2.23159376626925        1.00932619938014
N           46.88138613006176        1.29811168157488        0.43903224172509
C           48.23579359986960        1.10869605653995        0.43949379725629
C           48.90601183612265        0.01050714478993       -0.10823841508933
C           48.23021745378801       -1.10448876702420       -0.61337361892526
C           48.89548572743565       -2.22337294972374       -1.20013914722510
C           47.94280939545091       -3.15346199656633       -1.45228765915971
C           46.69913624182652       -2.60050504229315       -1.01029628358023
N           46.88226006408193       -1.32240276845062       -0.53395604661557
C           45.49602291084685       -3.29447388703491       -1.01806326664389
C           45.49921352714924       -4.71209252760798       -1.44730027724494
C           46.23439654866073       -5.66331846829362       -0.73483914993118
C           46.23637338907027       -6.98859480720865       -1.13238020366600
C           45.50877705318379       -7.38712438612303       -2.25622867576628
C           45.49899582844162       -8.79210054569067       -2.70447554607317
O           44.89074812273466       -9.18227919610218       -3.66775262398043
C           44.77599753250193       -6.43434802058593       -2.97158759071212
C           44.76815703571081       -5.11253939965404       -2.56972979764740
C           44.28927046667238       -2.71481891548476       -0.64861207302418
C           43.04453666250402       -3.41970952552326       -0.60622056402291
C           42.08673149331805       -2.50395498610446       -0.32322029648338
C           42.75041222312068       -1.24786011939395       -0.18031749206219
N           44.10145614292529       -1.38644100903315       -0.34108744529999
H           41.00229857498717        2.55422116745532        0.31291557410600
H           42.89709841280433        4.38681784912021        0.88567308985829
H           46.69506894908034        5.35425563698261       -0.12378678953472
H           46.69002082919693        7.70558297525268        0.67306712925332
H           44.91826114934288        8.87627153700907        3.77381085932064
H           44.25300033217790        6.56756678837808        4.00933951813544
H           44.26186197603270        4.22778640499436        3.22077558351415
H           48.07581881572483        4.09946526493471        1.79821394027958
H           49.97712344600919        2.30561835033687        1.13596164042578
H           49.95596400265866       -2.27660089819065       -1.38612801643174
H           48.06112865108491       -4.12614394155692       -1.90101666197283
H           46.79194502057617       -5.35815825077596        0.14349359077550
H           46.80425201589407       -7.72216699265240       -0.56940500609793
H           46.10323232782717       -9.47672992115114       -2.07198564502852
H           44.21739528481923       -6.75229735486862       -3.84536507622564
H           44.20812753603768       -4.37416178870955       -3.13231869459185
H           42.92856687729220       -4.47844121200891       -0.77051805756747
H           41.02402114613979       -2.65046737552240       -0.21763004546977
