448
 energy: -768.042104133084 gnorm: 0.000475394416 xtb: 6.5.1 (b24c23e)
C           98.27882924976070        0.02982221839485        0.10558251771459
C           98.88321640526922        1.26593637149129        0.29416320370282
C           98.22788304971701        2.51698924080100        0.47048923222391
C           99.18740564668340        3.47516273049469        0.63820615043040
C          100.46006294489951        2.83818653772934        0.58084073000529
N          100.22584320076457        1.51090801526360        0.35948508222304
C          101.72162080191117        3.42902405347630        0.71260158240980
C          101.74962601851109        4.88600994457526        0.98192228563182
C          102.37121542006736        5.77114423413683        0.10145944616561
C          102.36833156317071        7.12639152500495        0.39075433186813
N          101.80046732044723        7.63329883294478        1.48048341719544
C          101.20925942687097        6.79649673128977        2.32697555818462
C          101.15514708544937        5.42681779839682        2.12157150493696
C          102.94023891121888        2.75304697006678        0.61385415740702
C          104.23118157344908        3.37681583210187        0.84233949695635
C          105.15799015094284        2.41462722537553        0.65608238072741
N          103.10427678369091        1.43475239703298        0.31637122385145
C          104.43342145640590        1.20508507091177        0.31741721912535
C          105.07748555462946       -0.01495574578158        0.02981757764360
C          104.44502122578525       -1.24202734516491       -0.24548966183902
C          105.08801186548965       -2.46076699426545       -0.58759563434692
C          104.12351042966587       -3.41408352064278       -0.76276649056265
C          102.85945971840178       -2.80631272926185       -0.52728533756426
N          103.10487805599809       -1.49194234918027       -0.22991007492243
C          101.59974273647032       -3.41061382994100       -0.60436313867497
C          101.57542372568456       -4.86083783561268       -0.90464991945007
C          102.19890789865610       -5.78645541865716       -0.06798921147677
C          102.15006934268963       -7.13274777231143       -0.39334928560357
N          101.53671960654626       -7.59409656252275       -1.47847623846538
C          100.94080736493787       -6.71888236746366       -2.28207470758641
C          100.93095421470102       -5.35466326445679       -2.03872656832059
C          100.38039026449968       -2.74921516600992       -0.42514925595108
C           99.08161362085798       -3.40439402021374       -0.45135603032031
C           98.16252850587576       -2.43828263013772       -0.25350716999866
C           98.89882095100486       -1.19611720675558       -0.09673787229984
N          100.23179858457834       -1.42362353009400       -0.19287414210670
H           97.19359160079821        0.03184960724829        0.11790327007316
H           97.15827322392302        2.65333242243675        0.46195059572682
H           99.03343362846310        4.53234150641278        0.78146427704722
H          100.95259478054847        0.81054400161187        0.25703327525724
H          102.83647294889595        5.40403048535520       -0.80554006694311
H          102.84179352374761        7.83520771078662       -0.28227253809626
H          100.75812179650573        7.23992787459081        3.20986430845838
H          100.67384547268860        4.78211479907267        2.84740670183978
H          104.38479208021172        4.40552891962372        1.12513318888372
H          106.22921638013882        2.48899035244678        0.74914099222529
H          106.15328059160387       -2.58247069509626       -0.69700008406818
H          104.27151225218046       -4.44410602619222       -1.04317036902082
H          102.38296772961735       -0.80550937722432       -0.03688475544551
H          102.69949367806198       -5.45849680021565        0.83535015765875
H          102.62457559508394       -7.87202092458567        0.24537183976740
H          100.45016442488885       -7.12582810130739       -3.16141979876272
H          100.44431415339639       -4.67723262653579       -2.73020758036110
H           98.92103562857774       -4.46151272759145       -0.58906453399168
H           97.08851388496343       -2.52697118870069       -0.20587963687970
C          181.46622108506133        0.03239627615305        0.02632857157033
C          180.88036932911805       -1.16847800902999       -0.35209183459352
C          181.55411228571592       -2.35532915889843       -0.75624307981696
C          180.60897737270182       -3.29984630130060       -1.04125757327097
C          179.32705819867644       -2.72337971749937       -0.81030226706722
N          179.54166979785415       -1.43702740166184       -0.40438111989688
C          178.07477589534082       -3.32216913437359       -0.98494452111135
C          178.07135777177351       -4.73685303736216       -1.42797002659678
C          177.49146933264220       -5.11428286515651       -2.63872983555501
C          177.51568286079623       -6.44838348668769       -3.01305265071447
N          178.06698860785158       -7.40026766241428       -2.26686089551086
C          178.61975182055076       -7.04960483412394       -1.11025280834297
C          178.64960164076604       -5.74147931253365       -0.65292911835875
C          176.84507580492820       -2.69271653672307       -0.77702277535443
C          175.56263726202633       -3.35785365992087       -0.92151107576671
C          174.62055100298770       -2.43495885081960       -0.63936051180108
N          176.66029274802412       -1.39893058665745       -0.39619009793326
C          175.32681031418662       -1.21189216798916       -0.31095957255770
C          174.66360769787801       -0.01477596614154        0.02317337445897
C          175.27593312095360        1.20646180507247        0.36114437071133
C          174.61153279156323        2.41674379103828        0.69301639009263
C          175.56166942952203        3.35896566131354        0.97343618078050
C          176.83849472779158        2.74806875132890        0.83413043094014
N          176.61411681123076        1.45096389700463        0.45525947804687
C          178.08946612580081        3.34660509380958        1.01891280007128
C          178.09165047462997        4.76675838237949        1.44206749143169
C          177.51177145826404        5.16737936414129        2.64547687285402
C          177.53930456708767        6.50802521110205        2.99601411833190
N          178.09190501490497        7.44528542341701        2.23270414036922
C          178.64605332414436        7.07230773927388        1.08353339398153
C          178.67284711501699        5.75637346962346        0.64974327894848
C          179.32040153055175        2.70833166426372        0.83687427034008
C          180.61067053709809        3.33300102920050        1.08566637626264
C          181.54542981888147        2.40276829353268        0.80646610054674
C          180.82742471553860        1.20811209931188        0.39770756274781
N          179.49007225239853        1.42642322572283        0.43532844681316
H          182.55144985957421        0.04456505242347        0.02876702116012
H          182.62550888116286       -2.45755440493465       -0.82259109084200
H          180.77823396789182       -4.30592982176172       -1.38914200924802
H          178.80480761351797       -0.77689731132901       -0.17981551322950
H          177.04142872399078       -4.37047847818293       -3.28533151327472
H          177.07384077654103       -6.76567238788656       -3.95308456600013
H          179.05886413960587       -7.84975497890332       -0.52155652575920
H          179.10001849370718       -5.50499937265220        0.30379318437024
H          175.42337925428365       -4.39222968374016       -1.19053752018423
H          173.54881322048911       -2.54826309424313       -0.64627656109482
H          173.54150350915836        2.54343974802400        0.71374743065557
H          175.39530274835911        4.38819790139651        1.24630624069085
H          177.34758834369453        0.77449150167991        0.27065908599404
H          177.06148281654660        4.43675537969213        3.30695028704057
H          177.09821412702209        6.84292146854901        3.93031673631938
H          179.08756022034208        7.86078649961142        0.48107411644331
H          179.12446164685718        5.50082464696211       -0.30137129675640
H          180.75555634251612        4.34144954973499        1.43821129014273
H          182.61928076677924        2.48387587580327        0.86901475970533
C          106.48649932663187       -0.02211283804946        0.01066021714236
C          107.70363112275619       -0.02847137915512       -0.00958530877234
C          117.40124590814865       -0.02855063943886       -0.03798271452967
C          118.61952783442018       -0.02624328191102       -0.02845982251753
C          128.32667270907390       -0.03194382739035        0.00995699336838
C          129.54526802040280       -0.03020256123209       -0.00335979419143
C          139.25544228196597        0.00742661660040       -0.01731315526779
C          140.47407830611414        0.01238814195714       -0.00584450176445
C          150.18392164220484        0.02274657131643       -0.01607006284898
C          151.40255135575381        0.02592913398008       -0.02355675739825
C          161.11146633049870        0.01741760658246       -0.01922657387753
C          162.32976741030859        0.01170397915565       -0.01527812326017
C          172.03604208770832       -0.02986014518990        0.01664436632915
C          173.25311230498588       -0.02413507711412        0.01966646638382
C          109.11169958860681       -0.03176802359668       -0.02725451587872
C          109.74146203565532       -1.27445495658383        0.17677910777378
C          109.10384694341893       -2.51163064161578        0.44993848347813
C          110.07181400681249       -3.47476416546598        0.53946102578828
C          111.32997992137122       -2.85222816040581        0.31813498742670
N          111.08133067093712       -1.52060432701394        0.12138096412389
C          112.58829641057287       -3.46712173893209        0.29721097979630
C          112.60346715740697       -4.94065952530669        0.45604822224042
C          113.27744582641618       -5.54585122862840        1.51656757045161
C          113.25983282434498       -6.92696776597990        1.62894052927052
N          112.63007100286028       -7.71612142351726        0.76437095042329
C          111.98860075173002       -7.14809774252956       -0.25163056858834
C          111.94389236964037       -5.77635190425063       -0.44482700358699
C          113.81129993369390       -2.81270389889422        0.14317251470559
C          115.08550101492352       -3.49920842528739        0.03224188684764
C          116.02811079103205       -2.53918600526924       -0.06771685374373
N          113.99951026844293       -1.46523424624188        0.08099422007954
C          115.32998422173102       -1.27038627068483       -0.01996928728474
C          115.99417931002242       -0.02666653638921       -0.04686389430494
C          115.36273211119764        1.23216125195887       -0.08287621435738
C          115.99854730580796        2.49970062232502       -0.05869991571079
C          115.03023240120112        3.46048141645427       -0.16355359138916
C          113.77253413676961        2.80542113805643       -0.25737811843073
N          114.02254036355585        1.46117820132357       -0.18440000610800
C          112.51509310413947        3.40509474583189       -0.39998586101559
C          112.50317333965586        4.87933058899806       -0.55159380711476
C          111.83164431846387        5.69609063392573        0.35775694086123
C          111.85185443726598        7.06978983029664        0.17562881184248
N          112.48241129601053        7.65733357711700       -0.83626485875682
C          113.12233131428863        6.88637915907835       -1.70950186693608
C          113.16386222551884        5.50473447699900       -1.60878793098872
C          111.29041069452335        2.73516472792050       -0.41023793165244
C          110.01397397857356        3.38665279972027       -0.64348615837167
C          109.07116511896723        2.42762161690611       -0.53745581121202
C          109.77225811024277        1.19311111845326       -0.24630957241643
N          111.10408674365294        1.40338168575506       -0.19961041738114
H          108.04089707075944       -2.64063878540023        0.57241281662237
H          109.92867314516846       -4.52160814563532        0.75177344866606
H          111.79588484498490       -0.81810724996634       -0.03687634653736
H          113.79431655435863       -4.94134854601742        2.25230620255300
H          113.77301288021224       -7.42032126556867        2.44918057624014
H          111.48710936419251       -7.81898949591318       -0.94301088030146
H          111.41870182004602       -5.35924243343384       -1.29590663092530
H          115.21780629867600       -4.56880127727335        0.01451176333362
H          117.09360738342484       -2.65510829703728       -0.18089633944022
H          117.06059232183480        2.65233192071002        0.03789159159089
H          115.17259687837578        4.52870861190937       -0.16327930942100
H          113.30860110203638        0.74069889469824       -0.20128600499278
H          111.31464599366150        5.26195129651737        1.20514761143676
H          111.33999371565385        7.72625121198158        0.87316798451262
H          113.62494599052162        7.39506722140758       -2.52693118363620
H          113.68747144612146        4.91606523021929       -2.35272360364972
H          109.88010981328340        4.43107086883919       -0.87376403611396
H          108.00399706223827        2.51978055697149       -0.65739753296327
C          120.02633324153204       -0.02896450692455       -0.01638841030191
C          120.65574515879494       -1.23614484141628        0.34655572509466
C          120.02055700905353       -2.43175286386596        0.76807613343285
C          120.98942577667991       -3.37742182698718        0.96703903594085
C          122.24605231017939       -2.78597706046829        0.66642514410880
N          121.99582502522391       -1.48563735326304        0.31903164154235
C          123.50255210958117       -3.40435816003669        0.69389626347430
C          123.51673382715308       -4.85382248544289        1.00171684392583
C          124.21738558327429       -5.35167195844611        2.10020604394840
C          124.19857754708707       -6.71396562128861        2.35352140432797
N          123.54308436271378       -7.58353323892182        1.59129806740127
C          122.87611326387427       -7.11846705219924        0.53998403406197
C          122.83073041233986       -5.77343850985004        0.20866682747232
C          124.72545763679051       -2.77482918713082        0.45582282019684
C          125.99336882574646       -3.47753276649011        0.38110422110997
C          126.93941498140596       -2.53622606222292        0.18288190666948
N          124.92007836950127       -1.43934306294455        0.27427581852237
C          126.25027494913604       -1.26290208008279        0.13785824985505
C          126.91999142633908       -0.02773522767113        0.01592670503415
C          126.28808248799552        1.22666600268476       -0.10100365529496
C          126.92018455541697        2.49489914850780       -0.14963105521720
C          125.95117444186779        3.44357177505961       -0.33305808032646
C          124.69732338304780        2.77914127971201       -0.40632611213718
N          124.94899857915644        1.44408704369128       -0.23618998019889
C          123.44258723247796        3.35993755432456       -0.63015743720381
C          123.42968072098751        4.81745730776656       -0.89736419594998
C          122.71959424723464        5.69604503321630       -0.07929818511285
C          122.73860866887532        7.05173036997120       -0.36588490401701
N          123.40281965265989        7.56505834176733       -1.39650469723917
C          124.07931015146912        6.73476397517218       -2.18348447129438
C          124.12555437498537        5.36537460207635       -1.97476766539220
C          122.22044348012567        2.68557976437451       -0.62493999134120
C          120.95403072972447        3.30614393631945       -0.96865982176974
C          120.00801348481215        2.35839642632271       -0.80334463323227
C          120.69629264837425        1.16308309676453       -0.36047456511191
N          122.02562294410313        1.37999967405723       -0.29094896897772
H          118.95888927827653       -2.54581764821082        0.91124827731089
H          120.84744946913764       -4.39146113760716        1.30308874730672
H          122.70875368241725       -0.80589630982349        0.07670006227192
H          124.75578242295528       -4.67829789636028        2.75638877868686
H          124.73242613901601       -7.12402229697512        3.20580331261118
H          122.35391777674788       -7.85341872523266       -0.06557392594646
H          122.28472543067190       -5.44253681976443       -0.66682796951556
H          126.11904671572461       -4.54579979906199        0.45072567658824
H          128.00178870912055       -2.66902487662381        0.06083497911606
H          127.97983175250843        2.65748383502272       -0.04432044249436
H          126.09102708611380        4.51001412400988       -0.40030364321464
H          124.23779948846189        0.72103636333258       -0.21535462829517
H          122.17357608197878        5.32360625191392        0.77921514002742
H          122.19734183900070        7.75546740672328        0.25965709922300
H          124.60859299866586        7.18335825906042       -3.01906620768199
H          124.67970904182826        4.72594606964117       -2.65165896932151
H          120.82923460425042        4.32156135214532       -1.30805419894670
H          118.94656175860439        2.43357226266383       -0.97403476700504
C          130.95181813283233       -0.03075071767699       -0.01725097668155
C          131.59248060444537       -1.23282628470070        0.34412466853871
C          130.97003201209745       -2.43059302793345        0.77771804439520
C          131.94506465250586       -3.37490885593687        0.95149481962462
C          133.19332978451641       -2.77928532086955        0.62599851219550
N          132.93251905249403       -1.47840512062220        0.28858660584314
C          134.45130033085320       -3.39568978217803        0.62722875369962
C          134.47013383220687       -4.84975528837276        0.91224094515517
C          135.18427100204613       -5.36726461754044        1.99265715172232
C          135.16911721398472       -6.73415118109966        2.22071310545030
N          134.50488269345320       -7.58988193682051        1.45054175663078
C          133.82416196659281       -7.10583027360739        0.41669437930418
C          133.77396168438042       -5.75495551553898        0.11131233459627
C          135.66997649950832       -2.76019712933368        0.38482967116664
C          136.94120231534168       -3.45553695803846        0.29914946758541
C          137.88256021847016       -2.50681950748765        0.11388644479410
N          135.85754194532996       -1.42166396564462        0.21735757662624
C          137.18650711876421       -1.23684959020545        0.08283876694412
C          137.84895317877024        0.00344864629409       -0.02928095571821
C          137.20849443946531        1.25223704918852       -0.15751039571263
C          137.83106747852111        2.52455942975599       -0.21808263661252
C          136.85602414362353        3.46339044443303       -0.41917300180823
C          135.60749473529125        2.78873125306232       -0.48957696564509
N          135.86833946809926        1.45794153955733       -0.30174448027826
C          134.34937579076018        3.35857477630755       -0.72370472525041
C          134.33030267129229        4.81067788324729       -1.01826670185236
C          133.61460659785155        5.70251047477893       -0.21973302140286
C          133.62999722904058        7.05249896384681       -0.53256472350697
N          134.29604434881441        7.54817076981133       -1.57052442557213
C          134.97811034225504        6.70514673188399       -2.33902093396432
C          135.02803307605285        5.34028725210671       -2.10374201699427
C          133.13053700115984        2.67876469753710       -0.70175529199472
C          131.85915129641043        3.28754345768359       -1.04790972159454
C          130.91776341022467        2.34083692301916       -0.85257466046520
C          131.61390105319487        1.15698631248753       -0.39207075455797
N          132.94307819310905        1.37921557307115       -0.34032525403681
H          129.91225527001677       -2.54765082082783        0.94415849123212
H          131.81314049159832       -4.39047957461830        1.28702955097605
H          133.63792410431893       -0.79603217536063        0.03211846009671
H          135.73018620594644       -4.70598827458168        2.65488208169504
H          135.71365970039085       -7.15959255877127        3.05855662384955
H          133.29470867764553       -7.82977074694612       -0.19578562563187
H          133.21621148694820       -5.40779869880525       -0.75039126893931
H          137.07257171477940       -4.52391030772028        0.35527666366224
H          138.94552896545872       -2.63259938880951       -0.01071763974756
H          138.88894267899656        2.69650608145666       -0.11053543075597
H          136.98825453708707        4.52990202292002       -0.49938983747392
H          135.16281009744711        0.72957236182934       -0.27533729847237
H          133.06741627563633        5.34527130242782        0.64444546391401
H          133.08427787808529        7.76629960887190        0.07750684149577
H          135.50910928140800        7.13939302748182       -3.18104181572037
H          135.58685567229847        4.68975838535611       -2.76605560462770
H          131.72769426866046        4.29487685669612       -1.40822834043163
H          129.85473910401794        2.40897991799330       -1.01563427425620
C          141.88061411246642        0.01238865611343        0.00237433608940
C          142.51558271275087       -1.19125658912019        0.36912058748455
C          141.88776322665427       -2.38579609736261        0.80390427434887
C          142.86015912522592       -3.33007562721375        0.99251923709789
C          144.11180684245767       -2.73867925579912        0.67215206762737
N          143.85549770488504       -1.43924634011305        0.32530952538686
C          145.36869072264921       -3.35695091548142        0.67974982014779
C          145.38828088276628       -4.80694619131177        0.98429432209741
C          146.11007612697577       -5.30660528587429        2.06828400506808
C          146.09678302742978       -6.66930383903796        2.31945082657347
N          145.42718107257244       -7.53780657624454        1.56829490581957
C          144.73988628114952       -7.07110363434420        0.53092891144575
C          144.68749825747500       -5.72546786029802        0.20296631711110
C          146.58801753110578       -2.72637553256267        0.42604701963185
C          147.85470942347595       -3.42842905578557        0.32874711838973
C          148.79846642587464       -2.48530040389658        0.12783761467865
N          146.78041276689774       -1.38948623993576        0.25267494689506
C          148.10906178815532       -1.21165963681702        0.10348704173423
C          148.77731030261302        0.02526304853343       -0.00978659119615
C          148.14270390368034        1.27926933672435       -0.11426980031124
C          148.77133405211254        2.54935889775137       -0.15722113848069
C          147.79900502774387        3.49672486745372       -0.32986098483919
C          146.54663435950843        2.82945308021587       -0.40228550334051
N          146.80247197110990        1.49407333433889       -0.24233275807582
C          145.28940804317739        3.40750857175356       -0.61942630887926
C          145.27068956468449        4.86680502973343       -0.87626053095770
C          144.55836282250178        5.73607357483019       -0.05017638132157
C          144.57241573235851        7.09415463605290       -0.32534300632104
N          145.23377226593183        7.61835016858343       -1.35232720598705
C          145.91194804237375        6.79697063293610       -2.14713831962599
C          145.96313326628263        5.42601618254631       -1.95000567475698
C          144.06950184375572        2.72927047259806       -0.61565509372266
C          142.80177862572756        3.34714157959553       -0.95902127927723
C          141.85807367582916        2.39709782516340       -0.79401500631916
C          142.54852578395392        1.20356290460558       -0.35029466151197
N          143.87749089501403        1.42295100941224       -0.28225268708298
H          140.82854501650576       -2.50022944947492        0.96313276522847
H          142.72373389398649       -4.34309778491226        1.33391251034666
H          144.56422251321820       -0.75933006019361        0.07142480651571
H          146.66065553976082       -4.63410569193851        2.71519923362858
H          146.64714666826046       -7.08068488711323        3.16051202029730
H          144.20652797869619       -7.80522694969660       -0.06585822644436
H          144.12471708686357       -5.39346162128369       -0.66142069259131
H          147.98095394329331       -4.49735258238182        0.38625818125950
H          149.85906067122349       -2.61704854866912       -0.00970397612099
H          149.83114434232849        2.71390428842246       -0.05656047119332
H          147.93582591968038        4.56394124532846       -0.39066682448999
H          146.09323246537463        0.76907033541456       -0.22236721953860
H          144.01453690991846        5.35446898289670        0.80569523546594
H          144.02954736337878        7.79078122252178        0.30672820103851
H          146.43863579307782        7.25434416484685       -2.97958163257081
H          146.51849860333201        4.79420947787820       -2.63300970212976
H          142.67478339301630        4.36227530475881       -1.29843746793711
H          140.79667066426401        2.46991918969911       -0.96493340100525
C          152.80921704099165        0.02210523593452       -0.02798080227390
C          153.44250476041478       -1.18556240207431        0.32788155782196
C          152.81197486484339       -2.38269044094014        0.75166726784420
C          153.78178406551865       -3.33153793234951        0.92923992722675
C          155.03482391624598       -2.73977495200575        0.61513307666408
N          154.78177851721438       -1.43643974272932        0.28083754234326
C          156.29000816655272       -3.36116525752254        0.62283140867203
C          156.30210451124347       -4.81547470867809        0.90689743385375
C          157.00738839389928       -5.33532242343706        1.99203074865788
C          156.98623179661553       -6.70210995874929        2.21995980160585
N          156.32455640030656       -7.55566615800543        1.44512176145844
C          155.65269738470630       -7.06941073759824        0.40657460536466
C          155.60869727102747       -5.71830003979410        0.10103689968011
C          157.51245551601534       -2.73028280314679        0.38664641263070
C          158.78066731164935       -3.43141230977366        0.30319711937599
C          159.72655349394876       -2.48708606766238        0.11870703497637
N          157.70610830514175       -1.39272969583148        0.22087638002556
C          159.03624452053737       -1.21387171253890        0.08765609932349
C          159.70452975855770        0.02272290488378       -0.02522205812046
C          159.07248998221914        1.27614258022264       -0.14614804380696
C          159.70395305438058        2.54462097350391       -0.19910859454427
C          158.73407927001628        3.49204936399231       -0.38460871214890
C          157.48036810726748        2.82673886039213       -0.45440462749478
N          157.73306512264955        1.49240861479084       -0.28165792745293
C          156.22438328580100        3.40633023284001       -0.67568009889740
C          156.21006246343794        4.86371534312210       -0.94383537781609
C          155.50137793240657        5.74216102743388       -0.12433870985737
C          155.51960198464872        7.09790896497824       -0.41066768356641
N          156.18211793686649        7.61163043571812       -1.44216912361280
C          156.85730617436192        6.78153766176479       -2.23050568712231
C          156.90385575103318        5.41205831207272       -2.02238205281930
C          155.00232799528305        2.73190101148491       -0.66371652443844
C          153.73436957269575        3.35216181923124       -1.00239315171992
C          152.78844320713682        2.40621291472651       -0.82657355172596
C          153.47808661819252        1.21188018956501       -0.38347750156308
N          154.80807629124857        1.42744845824222       -0.32415709197483
H          151.75263256753433       -2.49607584507798        0.91032571667099
H          153.64320645974973       -4.34776640262112        1.26006016879163
H          155.49200930572545       -0.75607690754625        0.03244151807756
H          157.55107360640730       -4.67570718446809        2.65774265938240
H          157.52355041709185       -7.12940025730234        3.06151161397022
H          155.12528161779963       -7.79159374717835       -0.20971076426255
H          155.05799798374625       -5.36935793012426       -0.76446691940811
H          158.90684628900874       -4.50041238949502        0.35930951160453
H          160.78913104239402       -2.61778443430664       -0.00469738676360
H          160.76388566346503        2.70789483956014       -0.09646712849293
H          158.87329968763845        4.55836110719594       -0.45523350190770
H          157.02245586633802        0.76888302506733       -0.25772468516930
H          154.95708183793823        5.36959741275320        0.73521655304689
H          154.97929192504031        7.80137720208848        0.21600829104010
H          157.38531714483193        7.23046525855746       -3.06671241835782
H          157.45688310234169        4.77298971812399       -2.70053449770328
H          153.60823373621747        4.36617729912116       -1.34549111733184
H          151.72608399849494        2.48185142354010       -0.99084601370134
C          163.73700985103017        0.00161057495113       -0.01263913496406
C          164.36139569009762       -1.18417643153838        0.42171276494036
C          163.71768905799050       -2.35004201603567        0.90961252782087
C          164.68124650262072       -3.28130213870284        1.18464459562563
C          165.94410852860767       -2.71018731344587        0.86995460039329
N          165.70120832591442       -1.43721572881429        0.42781114335438
C          167.19946123375325       -3.31657279075908        0.99933984128182
C          167.19946557857142       -4.73349323044733        1.43693935701003
C          167.81487963004554       -5.12717306247948        2.62461918772295
C          167.78416237238397       -6.46352263404581        2.99087627585957
N          167.19475278083041       -7.40245157479776        2.25766628873527
C          166.60791408198156       -7.03631151886508        1.12281061599507
C          166.58079356992465       -5.72472650770201        0.67565389737339
C          168.43066773360297       -2.70516005218893        0.75722875307218
C          169.70685928272783       -3.38970850157671        0.86292666001057
C          170.65616540019346       -2.47121112391250        0.59026814666849
N          168.62494618833446       -1.40625001297732        0.39987416128296
C          169.95991293338042       -1.23265499616836        0.30465170552927
C          170.62647877928106       -0.02799449110041        0.00892716443409
C          170.00407056009564        1.19666032043066       -0.29855231022683
C          170.65258197349243        2.42395592289755       -0.59112478063467
C          169.68977400523900        3.35327947532406       -0.87552898850033
C          168.42358985519411        2.71510666499794       -0.77828194228732
N          168.66335721598179        1.41781939910419       -0.41278971707982
C          167.16749996288704        3.28771060699530       -1.01348562351395
C          167.16246282090879        4.70533126962594       -1.44834947648158
C          166.53674342634343        5.69165619456547       -0.68659772931401
C          166.56293214671118        7.00500989884848       -1.12819372647257
N          167.15679012765750        7.37780486732898       -2.25737413068851
C          167.75148766977333        6.44340300568496       -2.99187917060918
C          167.78367966657117        5.10560121535124       -2.63086919140670
C          165.93806413969057        2.64147239270542       -0.87954202700903
C          164.66641329288049        3.25084300644193       -1.22437459482021
C          163.71719785579387        2.33205545012884       -0.95128125730192
C          164.40850250538472        1.16466200219338       -0.44253567453851
N          165.74103067800334        1.37124543721858       -0.42957125214890
H          162.65381322076666       -2.45367017923873        1.04353213907817
H          164.53270269444425       -4.27188677256111        1.58222381011335
H          166.41922156975400       -0.77741738823920        0.14815158614080
H          168.29694590464422       -4.39438476784322        3.26057406946761
H          168.25263912767082       -6.79343973383485        3.91348218498131
H          166.13774167933315       -7.82610762375844        0.54425682251323
H          166.10011839326933       -5.47471897880597       -0.26273325967149
H          169.83721043008916       -4.43228666168734        1.10318417290275
H          171.72648043783838       -2.59683664161597        0.57730161391505
H          171.72012072972856        2.57107326461449       -0.58600959106606
H          169.84234204070196        4.39037105708718       -1.12554302953434
H          167.94339610868298        0.72089518689413       -0.25398593254377
H          166.05005830236317        5.43533507685297        0.24683572492027
H          166.08716961858434        7.79125766806457       -0.54942121784090
H          168.22434585746046        6.77814553182504       -3.91051958063673
H          168.26995034223157        4.37692382368699       -3.26855269710948
H          164.54006777349872        4.23902744182983       -1.63588513478795
H          162.65104206856148        2.40860249875722       -1.08872046340230
