480
 energy: -834.924897219833 gnorm: 0.000272753142 xtb: 6.5.1 (b24c23e)
C          112.83125427507304       -0.14040026154156       -0.20848311105230
C          113.40867317802926        1.08517159179931       -0.51414963725923
C          112.72743730864731        2.28014212381431       -0.87897801160835
C          113.66497054769903        3.25182957607196       -1.08956821143995
C          114.94905353172693        2.68453349686798       -0.84983063593276
N          114.74378905409196        1.37589312139227       -0.51526599528480
C          116.19506756585400        3.31322639502234       -0.95239151415412
C          116.18699817129409        4.75365722476790       -1.30798407658324
C          116.81131032622660        5.20013945348719       -2.47324132586668
C          116.80388902760608        6.54460015720007       -2.81068715234142
C          116.17240340404199        7.46343227577349       -1.97566073575113
O          116.14417892237110        8.78977035801138       -2.26607913685228
C          115.54669210811493        7.03127419504179       -0.80779385797594
C          115.55338113010225        5.68623422778143       -0.48305127044588
C          117.42761009269501        2.68807200649562       -0.74661888379179
C          118.70346745933966        3.37743036453435       -0.81083255698099
C          119.65166936021167        2.44960292405145       -0.56628378579232
N          117.62193221487549        1.37418402057767       -0.44662995116886
C          118.95533307931066        1.19892774759894       -0.33800861252892
C          119.62754118207131       -0.00823946161553       -0.06181264529368
C          119.02464277107424       -1.25435015459337        0.19389683412996
C          119.69909478525318       -2.47364499425193        0.46622055535147
C          118.75641712228330       -3.44081211191067        0.68032536788344
C          117.47428999044455       -2.83791774972150        0.55817318145471
N          117.68844173869169       -1.51909409370362        0.25457570451631
C          116.22869755415316       -3.46022180700450        0.69794332608606
C          116.23798263114426       -4.89875513924135        1.05884104065920
C          116.82011056693743       -5.32867015926271        2.25408126018946
C          116.82904902063503       -6.66910157339483        2.59674086582764
C          116.25789813110119       -7.60599282885763        1.73745556456026
O          116.28816425871472       -8.91371771960002        2.10212252750626
C          115.67673927803456       -7.19292302425789        0.54081973150475
C          115.66594022575705       -5.84683064235199        0.20977373315226
C          114.99400535797551       -2.82589346389182        0.52629700238007
C          113.70684706125110       -3.47291836187838        0.72768585032334
C          112.76617238573660       -2.54218079041155        0.46894323274695
C          113.47732705206047       -1.32439914234827        0.12268602799175
N          114.81608350910801       -1.53019786167333        0.17454196869372
H          111.74644168199750       -0.16632346975884       -0.23181106261914
H          111.65678700633326        2.36953566675097       -0.97185559365995
H          113.48881131665178        4.27090388897110       -1.39363895412940
H          115.48478410748213        0.71624401185200       -0.30326508489537
H          117.29242768959904        4.48448866386252       -3.13054992767223
H          117.28567559169896        6.88476578385160       -3.72109518955698
H          116.61142541710265        8.97962258021368       -3.09070494440628
H          115.06340381735507        7.75713472298701       -0.16555085168584
H          115.07906628562871        5.35298831396917        0.43337126814633
H          118.83510160521790        4.42969405502324       -1.00413014685182
H          120.72140132453393        2.57736493090469       -0.53617706505305
H          120.77023287405737       -2.58954026383013        0.49408323248193
H          118.93179239483221       -4.48206704961507        0.89617707330294
H          116.94944056307459       -0.84196828053463        0.09641678175820
H          117.25195338311232       -4.59902462975351        2.93005502942543
H          117.27277527895446       -7.00363886905795        3.52630616621463
H          115.86359754875825       -9.47438094163818        1.43899362056224
H          115.23714247883117       -7.92602055387940       -0.12703341668246
H          115.22506545114997       -5.52848672748128       -0.72831753024778
H          113.56661367827793       -4.49571789464073        1.03869602040030
H          111.69231471845258       -2.63725937141551        0.51032372607391
C          195.93864742050329        0.14951361850827        0.22647880988203
C          195.36128000582153       -1.07843969858510        0.52292594762247
C          196.04457102948129       -2.29197420536361        0.81542740261112
C          195.10653734047318       -3.25445753820713        1.06318402103167
C          193.81954267680223       -2.65710469079519        0.94135993552649
N          194.02440292326580       -1.34940764750977        0.60250619536391
C          192.57166432804800       -3.26479595496303        1.12105895005605
C          192.57464068189054       -4.69099936645265        1.52761223147747
C          191.96328658068651       -5.65553009375339        0.72544558790990
C          191.96687705482537       -6.99131846566828        1.09537174373843
C          192.58074416350837       -7.37746161922614        2.28468330238032
O          192.60587856090581       -8.67446736228974        2.68629930531081
C          193.19128715264929       -6.42406432363963        3.09742360836935
C          193.18885671475053       -5.09400307095588        2.71602964701823
C          191.33971968600542       -2.62812923079297        0.94803716773227
C          190.06007347303273       -3.25421882752757        1.22678059100413
C          189.11439621092481       -2.33727682212820        0.93474592452217
N          191.15014172556513       -1.35031521288420        0.51824210426982
C          189.81624740431690       -1.15147601517419        0.48459075880671
C          189.14875942020805        0.02089562419064        0.07806423198972
C          189.75488519518106        1.23389794557324       -0.29974839410843
C          189.08679520115507        2.39769533053378       -0.76313026727417
C          190.02990484055582        3.35572187650107       -1.01431635896380
C          191.30505673483722        2.80695530255034       -0.70619677164315
N          191.08788205614709        1.51999585863017       -0.28954363146725
C          192.54994099209202        3.43614418715721       -0.82186195464103
C          192.54283690253484        4.85517899925387       -1.25063556526997
C          191.87017138198914        5.82312040950697       -0.50004109215919
C          191.85947956190358        7.14825518740341       -0.89757798393992
C          192.52043964791051        7.52497778838832       -2.06533603422149
O          192.48517339977468        8.83262051197505       -2.42961426351863
C          193.19302774168375        6.57109323525418       -2.82568341198468
C          193.20436162676168        5.24718097413260       -2.41526117539814
C          193.78109735007990        2.82181839041679       -0.56933912023176
C          195.06479966389580        3.50269321351268       -0.63505842940298
C          196.00320902774598        2.57857044309593       -0.34576837025891
C          195.29336254944249        1.33755959331507       -0.09164240652658
N          193.95726489232939        1.52430698240613       -0.22342753545758
H          197.02353643278465        0.17441304682658        0.24829953947658
H          197.11721913628315       -2.40261458739996        0.82537316654051
H          195.28506511782112       -4.29059973636084        1.30091860696604
H          193.28178125616861       -0.67988650424664        0.43091614581217
H          191.49600367987620       -5.35793575481856       -0.20665834218232
H          191.49611082511032       -7.73719329292610        0.46390031779267
H          192.14806473921334       -9.24707741995564        2.05631700242593
H          193.65962186241077       -6.73765242264694        4.02221318583614
H          193.65036616733823       -4.35123298597518        3.35723198834737
H          189.92496677076591       -4.25147897220165        1.61313459044913
H          188.04390342295673       -2.42628781570548        1.02486710893291
H          188.02067094473827        2.48031297038662       -0.89838533418183
H          189.86015461667193        4.35019025268758       -1.39351534640427
H          191.82398292253120        0.87369420045122       -0.02495680071798
H          191.36766797759202        5.53377652618847        0.41626923921185
H          191.34495198687739        7.90114484921035       -0.31334749093264
H          192.97609631885243        8.98362263030253       -3.24848828534469
H          193.70237867962987        6.86789134267425       -3.73627354239792
H          193.71578629088521        4.50361373339748       -3.01631775597502
H          195.20371306279787        4.54841346683455       -0.85801053699730
H          197.07422247879541        2.69706244039523       -0.29269252541749
C          121.03714385914019        0.01666952372173       -0.03245204740291
C          122.25399252483604        0.03169089165159       -0.00399985314187
C          131.94429604832305        0.07029618522310        0.14984626739230
C          133.16186601568720        0.06877968411435        0.15466340415477
C          142.85332700321226       -0.05683833655932       -0.00207314096596
C          144.07125985324464       -0.05520061890993       -0.01746126937997
C          153.77895172088822        0.04464171191180        0.00639774132200
C          154.99734934276478        0.05043612167523        0.02288174165047
C          164.70728090781026        0.08687353877834        0.00068053589716
C          165.92579546400367        0.08854785529227       -0.02253069020524
C          175.62300306865157       -0.08885545125653       -0.15903957709191
C          176.84046044279611       -0.08996830234805       -0.15478466056070
C          186.52344160314115       -0.02405383073834        0.00577722130452
C          187.73996453286645       -0.00599283849217        0.04161046639424
C          123.66286234036150        0.03636322319899        0.03414341081859
C          124.29974554528148       -1.17608226522660       -0.29310690722970
C          123.66645163773151       -2.37299542973459       -0.71520868532083
C          124.63977321504136       -3.30537817089809       -0.95111833464153
C          125.89762912780586       -2.70526640754151       -0.67402286611795
N          125.64197878042675       -1.41633165240716       -0.28835329103120
C          127.16118064373417       -3.29897761117348       -0.78892484206224
C          127.18598321198841       -4.73042697095451       -1.17731008839788
C          127.83792410564287       -5.13431268039669       -2.34332292540556
C          127.86105856386091       -6.46884798153258       -2.71680683986517
C          127.23348345709347       -7.42131691436333       -1.91714819939326
O          127.23374559454145       -8.73921084199987       -2.24389335099073
C          126.58220941298772       -7.03237513783513       -0.74793731390193
C          126.55797389132904       -5.69678025957965       -0.38738135283342
C          128.38150677374276       -2.65587629879006       -0.57422737026226
C          129.66613874078084       -3.33038961778614       -0.61588452099048
C          130.60012475762656       -2.38941449101928       -0.36525097430755
N          128.55601920653200       -1.33693742761604       -0.28328104431641
C          129.88574921440593       -1.14461713819441       -0.16587156560197
C          130.53625600317136        0.07062652772849        0.12866757625423
C          129.90069169535383        1.29323579219220        0.41569867072087
C          130.53738688910167        2.51839825838148        0.74117365247253
C          129.56406482308094        3.45015460694112        0.97724185047896
C          128.30229602442304        2.82336512665881        0.78901735177513
N          128.55683976698575        1.52063839858689        0.45171699083511
C          127.03856459906257        3.40248878809829        0.95576284044457
C          127.01734864235802        4.83852758497114        1.33229599266322
C          127.55516995286243        5.80522184569456        0.47929706755017
C          127.53600756623653        7.14495374937484        0.82480972890600
C          126.98079052911609        7.53705506954654        2.04144958410954
O          126.98190040511049        8.85926362036516        2.35114917826727
C          126.44477938866265        6.58378244533311        2.90411670460415
C          126.46220405967296        5.24468111991622        2.54602353080902
C          125.81666718074285        2.74599727117920        0.79803514775018
C          124.52751506336600        3.39804216962118        0.94118752704388
C          123.59363280665131        2.45779459886003        0.68941083444834
C          124.31150002983951        1.23791877019384        0.37939307058129
N          125.64368732090094        1.43959697074659        0.45560156265342
H          122.60263302248606       -2.49508106210552       -0.83721465905341
H          124.49985120383565       -4.31482514106502       -1.30172101660674
H          126.35420857419845       -0.73503765407138       -0.04794106969930
H          128.31587582752857       -4.39225325676443       -2.97311001202749
H          128.36334056222066       -6.77526739659284       -3.62811609032979
H          127.71839450157231       -8.89852031595313       -3.06496763951927
H          126.10315107068845       -7.78423610070188       -0.13303278034498
H          126.06365437588983       -5.39755880314912        0.53018908616840
H          129.81208148713387       -4.38409012682648       -0.79029013771845
H          131.66947079225946       -2.50788480872429       -0.29726549970391
H          131.60428934016639        2.66157510132208        0.79101192862103
H          129.70656577194060        4.47861607690954        1.26603845639950
H          127.84293472437598        0.82500122762090        0.26265225204436
H          127.97521580884015        5.50228520046857       -0.47336737997555
H          127.94552585104299        7.89718263412168        0.16198917528919
H          126.56756527887691        9.02025539339564        3.20951071906376
H          126.01762702109305        6.89295403964851        3.85206615197886
H          126.05563536129230        4.50234038917734        3.22374087737399
H          124.37757830688409        4.43668417386186        1.18738863336302
H          122.52064352163694        2.55801694343741        0.70433200651768
C          134.56981723429030        0.04246957308418        0.14843798842336
C          135.16995528257596       -0.93585084925677       -0.66757915452511
C          134.49678960856957       -1.85063018848397       -1.51745301963971
C          135.44182452554932       -2.59439106763360       -2.16965874455081
C          136.72156045146704       -2.15763930340465       -1.73266844780319
N          136.50649069586777       -1.15344840559836       -0.82665950142062
C          137.96674864730755       -2.62164660252444       -2.17493283549163
C          137.94118371120459       -3.73426710014626       -3.15719993585281
C          138.47314264156714       -3.56406227533504       -4.43570864970258
C          138.44377876087745       -4.59800023074087       -5.35860386132816
C          137.88348616584221       -5.82357477639886       -5.00608696114307
O          137.83542761040468       -6.86336921229397       -5.87836887695189
C          137.35160017427836       -6.00797255580267       -3.73119838174174
C          137.37887546434706       -4.96766922295436       -2.81930659932964
C          139.20783841237164       -2.12240648293526       -1.77732413138311
C          140.47654885646480       -2.66002482837714       -2.23347696685333
C          141.43868892393095       -1.93300735479371       -1.62871206835487
N          139.42137258727547       -1.10002148388187       -0.90290658143694
C          140.75876889084230       -0.96394034433130       -0.79371693426582
C          141.44570569271610       -0.03793465547572        0.01688558566651
C          140.84447277746455        0.91084939176568        0.86714274377563
C          141.51526890034097        1.79170654333861        1.75348658145801
C          140.56985489577738        2.53201627727038        2.40922621870656
C          139.29192870199572        2.12702325956756        1.93805886691470
N          139.50833852442759        1.13955558379533        1.01389282687249
C          138.04670285017190        2.61475085427620        2.35455829598569
C          138.07224692405902        3.72554648177677        3.33819287168527
C          138.68456161173850        4.94095972494378        3.02187202885933
C          138.71219940823048        5.97999154722450        3.93507056374306
C          138.13008469693679        5.81257121553813        5.19024124858922
O          138.18013079148830        6.85036892770552        6.06468529478880
C          137.51924769742698        4.60527447838454        5.52134084859766
C          137.48989666630763        3.57272172836985        4.59695168099657
C          136.80509482246538        2.14141097498554        1.92696121134122
C          135.53681185306112        2.71341650922666        2.34093820833972
C          134.57456288620648        1.99176140501020        1.72955686508685
C          135.25500264891309        0.99001682775556        0.93428255800120
N          136.59220169852759        1.10709042248407        1.06712266240221
H          133.42660827226982       -1.91562695633109       -1.62565415693938
H          135.26867114471526       -3.36604126361511       -2.90180161000280
H          137.24101310522556       -0.63497598165041       -0.35660724780976
H          138.89756331369290       -2.60641259057379       -4.71576986765400
H          138.85252450174843       -4.45746933014534       -6.35351259372945
H          138.23545237703624       -6.62979997698011       -6.72677691809795
H          136.92306634360213       -6.96746112811363       -3.46921795052889
H          136.97610363972905       -5.11569654245819       -1.82349064473091
H          140.59551964542996       -3.48910999738557       -2.91198376353031
H          142.50827855374132       -2.02746188844802       -1.72194301745752
H          142.58389941054045        1.83696934322466        1.88323220291984
H          140.74155673100555        3.28087869647908        3.16498902949995
H          138.77478781826761        0.64273563741932        0.51964393069432
H          139.12632896321881        5.07652020863213        2.04092028078815
H          139.17955796521022        6.92553877914106        3.68927845332312
H          137.74243671807628        6.63012113172023        6.89792364498632
H          137.07139572152289        4.47782552949162        6.50106303890328
H          137.02597134163418        2.62897133328247        4.86107035828287
H          135.41887215014953        3.56059710356095        2.99695549558759
H          133.50488940472596        2.10945726707523        1.79370211823103
C          145.47894208979696       -0.04660865938747       -0.01738408592156
C          146.12146108171731       -1.22731109170928       -0.43725327496740
C          145.49324402604950       -2.41615460847734       -0.88741716182055
C          146.47261860101065       -3.31310097612544       -1.21627824251062
C          147.72987891968569       -2.70249122108613       -0.95991784908393
N          147.46689149818548       -1.44056153312748       -0.49713728337649
C          148.99733132290640       -3.26727525261518       -1.14980989181796
C          149.02839500057374       -4.66625384491897       -1.64470899160952
C          149.63313527260377       -4.96752431721715       -2.86564771758521
C          149.65792732815197       -6.26883177732151       -3.34234622527391
C          149.08047039887325       -7.29067955195775       -2.59215989518551
O          149.08301509845512       -8.57915131634471       -3.02051038987861
C          148.47916607541620       -7.00457477703341       -1.36783500548976
C          148.45237323189963       -5.70123578151736       -0.90403451394933
C          150.21667067441209       -2.63085848390246       -0.91238386552293
C          151.50258312016152       -3.29424739979932       -1.02511310956220
C          152.43604158246228       -2.37450003931087       -0.70415570934290
N          150.39096787292468       -1.33884080806304       -0.51743400873942
C          151.72135989116441       -1.15266514145399       -0.39674396772025
C          152.37171242704036        0.03902783933308       -0.01459772559178
C          151.72740205173142        1.23290121962038        0.36563219327303
C          152.35458202501167        2.43737469024579        0.77326478194650
C          151.37524369693969        3.33686339183229        1.09457204590392
C          150.11815874438906        2.71168808732699        0.87627994861752
N          150.38176095438538        1.44132353984483        0.43690193311181
C          148.85135672671291        3.26842473207966        1.09110815192738
C          148.82137199999983        4.66994308480285        1.57996973657386
C          149.35620558310126        5.70790732758350        0.81334656881795
C          149.32985449958656        7.01326431082711        1.27165667577941
C          148.77078095114800        7.29809996186691        2.51610429675882
O          148.76724141906033        8.58874262092374        2.93802029124569
C          148.23515581409549        6.27297659274972        3.29235939581114
C          148.25897968183060        4.96957914811986        2.82124489871325
C          147.63168654082898        2.62191726378461        0.88642977945267
C          146.34343337648366        3.27315561484457        1.03751304795443
C          145.41002690491774        2.34964756075470        0.72763797522634
C          146.12771790506503        1.13818926036405        0.38648916932019
N          147.45888873883800        1.33266198635941        0.48260336916342
H          144.42766390482140       -2.56096002278818       -0.95303546126299
H          146.33603777276258       -4.30693746571144       -1.60997187515186
H          148.17521534634807       -0.76107600861538       -0.24055798916519
H          150.07269907215999       -4.17097222544036       -3.45559121213763
H          150.12243038345792       -6.49543007095249       -4.29605604446782
H          149.52846257548379       -8.66595510488353       -3.87398459610384
H          148.03982262544582       -7.80986324595832       -0.79220652807038
H          147.99665141351488       -5.48206338977594        0.05513612221682
H          151.64947795942871       -4.32868700391557       -1.29029211223352
H          153.50579620447633       -2.49517011469627       -0.65498940295803
H          153.41967619086284        2.59173202120122        0.81538366289082
H          151.51193461039153        4.34175923771691        1.45902065264879
H          149.67369244262164        0.75179208250201        0.20780285098796
H          149.77916116999145        5.48922253895734       -0.16081574162648
H          149.73709245779014        7.82104599792034        0.67625607065484
H          148.35160577955492        8.67440179782685        3.80652024737748
H          147.80368335696178        6.49862028578404        4.26168314607983
H          147.85189064786357        4.17053319284269        3.43080164445909
H          146.19469753784995        4.30289307985501        1.31943573688270
H          144.33835471189639        2.46219331630305        0.70468810335366
C          156.40437338153114        0.04339931055361        0.04139231940874
C          157.04060046124056       -0.99553945804138       -0.66726420225845
C          156.41201660565699       -1.98992072224533       -1.45816535249374
C          157.38484753021623       -2.82184251391000       -1.94270565194808
C          158.63747417458376       -2.35998049396840       -1.45725487168533
N          158.38075670879451       -1.24290479559615       -0.70784181926681
C          159.89602411611739       -2.93293531611791       -1.68405601405521
C          159.91277412704127       -4.21319193096648       -2.43124014453700
C          160.63250893874891       -4.32914039869385       -3.62160430080824
C          160.64638794941197       -5.52102443376201       -4.32872978145262
C          159.94108092973249       -6.62046697003087       -3.84457645583438
O          159.92891406986320       -7.80721384511549       -4.50405068720546
C          159.22197945648415       -6.52038310672784       -2.65481256899063
C          159.20771983923822       -5.32415715090388       -1.96010855505277
C          161.11715162970765       -2.39756197160985       -1.27015810921945
C          162.38952164426814       -3.07807521901510       -1.42384014474952
C          163.33241302300527       -2.23511668045248       -0.95291069363817
N          161.30627334242661       -1.18119301225397       -0.68663872054648
C          162.63623462286364       -1.04516133072314       -0.50984396963311
C          163.30019019629120        0.08474290700388        0.01314509011659
C          162.66373903104605        1.21325003927217        0.56658289621229
C          163.29627698600240        2.35292476056024        1.12445029282199
C          162.32415308124149        3.17224829590147        1.62941049739845
C          161.06515025259574        2.56278224634945        1.37974223331479
N          161.32054499228758        1.38618057322816        0.72673944771698
C          159.80857142102417        3.03094929309429        1.78266213954170
C          159.79640407192079        4.30856663670782        2.54113397225998
C          160.21602600677528        5.49693665715261        1.93938148288304
C          160.20620299680931        6.68878809322027        2.64249450286176
C          159.78021403115636        6.70501047015783        3.96927250569404
O          159.78805215847376        7.89063829142017        4.63159984860613
C          159.36214578828884        5.52672238752220        4.58320174287421
C          159.36881271857655        4.33879210527337        3.86841343113314
C          158.58683327021163        2.40552477048023        1.53289959602789
C          157.30638573027881        2.94441909457383        1.95296187734779
C          156.36400141159237        2.10784185336392        1.47141651908421
C          157.06657894039321        1.06828618690958        0.74789446320666
N          158.39952677932538        1.26306025642011        0.81478373477788
H          155.35243254932163       -2.04902944322153       -1.64340640227112
H          157.24786717943024       -3.67045035072851       -2.59275437632644
H          159.08948862416287       -0.67784528761192       -0.25243015785132
H          161.17073002141339       -3.47033006515800       -4.00691436589912
H          161.20128327675349       -5.60205652878257       -5.25727585623277
H          160.46494961923756       -7.76935937356947       -5.30757312712981
H          158.68291107972644       -7.38470367456885       -2.28705277458520
H          158.66030413471978       -5.25236512853993       -1.02683599918665
H          162.52133571695020       -4.07366427013589       -1.81559465705582
H          164.39594347276920       -2.39307986731778       -0.88092078924299
H          164.36025539149298        2.51856773363003        1.14055712035120
H          162.46681023852682        4.11129868988596        2.13854117391773
H          160.60957371421296        0.73041531824817        0.42043244256538
H          160.53621349592740        5.48680181981520        0.90349314466725
H          160.52423201330521        7.61320130699059        2.17647604079794
H          159.46995394969909        7.78939336024519        5.53871885795673
H          159.03489905183164        5.54330758818132        5.61727871013589
H          159.05394379378779        3.42004939960319        4.35055535584590
H          157.16672062955971        3.84656616535948        2.52611852560239
H          155.29407910996943        2.16871835205493        1.58346197479061
C          167.33293459659185        0.06653356853141       -0.04489435230131
C          167.93370743112783       -0.91460480452352       -0.85932816393270
C          167.26482271837884       -1.82133817294012       -1.71995252564666
C          168.20929100591692       -2.60323894872919       -2.32722482371221
C          169.48502620876459       -2.19829792974956       -1.85080348376057
N          169.26869610097330       -1.16642366380984       -0.97628149841984
C          170.72806352241042       -2.73189946617977       -2.21491110394962
C          170.69936636137243       -3.89966030003340       -3.12962606293090
C          171.31776857199733       -3.83873972902639       -4.37905995113398
C          171.28867312059398       -4.92632571395903       -5.23796312928454
C          170.64167540794855       -6.09713288952739       -4.84941737808253
O          170.59129621690124       -7.18667927435753       -5.65844665367117
C          170.02258120631240       -6.17271518525566       -3.60307091854959
C          170.05037070364298       -5.07930622746604       -2.75580751731813
C          171.97094201819218       -2.25575618155196       -1.79414987879186
C          173.23523360813039       -2.87680704207589       -2.14508653289946
C          174.20079713760606       -2.12664975397467       -1.57447679773397
N          172.18874835365963       -1.16596375534897       -1.00736677218434
C          173.52586080599681       -1.05794250198373       -0.86662313988008
C          174.21527531590712       -0.05624337227430       -0.15552701913388
C          173.61878656237073        0.98689594194295        0.57842843063388
C          174.29428054491899        1.96802669883985        1.34874660413597
C          173.35070093667920        2.75953437054708        1.94447417449803
C          172.06984098218555        2.28566188249311        1.55166604895510
N          172.28259433274476        1.21418512439287        0.72602453043683
C          170.82612234634749        2.77400955734127        1.97089996480997
C          170.85562202476541        3.95885220621780        2.86526615822423
C          171.39547798345706        5.16805319196111        2.42032008501051
C          171.42451627375317        6.27795585009480        3.24597918275601
C          170.91717841237437        6.18925007196021        4.54096032043677
O          170.96534794586304        7.29607268896764        5.32638202856144
C          170.38074245354085        4.98861409188866        5.00020695168537
C          170.34941428418654        3.88401495437391        4.16305820677001
C          169.58403358540565        2.24092278979123        1.62435680804000
C          168.31858562624146        2.79630985052323        2.06725298018300
C          167.35329858520225        2.03148219843007        1.51699336336073
C          168.02660319285894        1.02301846763852        0.72513484483917
N          169.36460629719545        1.16882650599326        0.81237630065948
H          166.19842188629710       -1.85502878512623       -1.86797554973101
H          168.03853040446324       -3.38063102028986       -3.05383575379037
H          170.00126636229319       -0.65855468784643       -0.49195063573159
H          171.81026339126180       -2.92364506154056       -4.68841348414922
H          171.76508374825099       -4.87034327278948       -6.21088474573502
H          171.05681280467613       -7.02896655521474       -6.49078922979813
H          169.52716142881567       -7.09072143305612       -3.31199784424322
H          169.58009554256165       -5.14364366687585       -1.78086506317917
H          173.34829259262619       -3.77252313727079       -2.73406741691502
H          175.26923572888100       -2.26549340476810       -1.61283901281865
H          175.36489163081055        2.04383313681731        1.44531962029933
H          173.52534415861049        3.58791387546957        2.61138370174191
H          171.54724344255442        0.65932586976708        0.30092949633527
H          171.77908797014871        5.24090706941918        1.40872432820699
H          171.83522922499935        7.21869665254232        2.90070837133280
H          170.58188011866406        7.12679745958795        6.19738531767965
H          169.99159333906863        4.92274561133783        6.01059750671702
H          169.94336361801209        2.94655487360543        4.52629182721452
H          168.20309894455349        3.66054306469761        2.70094745111240
H          166.28509610996505        2.12577519330280        1.61985624024021
C          178.24858728463056       -0.08675335867620       -0.13617103984567
C          178.88477709063679       -1.33176927144815       -0.29733952310398
C          178.24843942159819       -2.58331877708756       -0.50029119252163
C          179.22200736611740       -3.53524234925038       -0.63228077466801
C          180.48331891807814       -2.89362714382508       -0.49926134054064
N          180.22850462937888       -1.56261138631201       -0.30148597283583
C          181.74775036071117       -3.48857985210514       -0.58683342977472
C          181.77160107079553       -4.95679775345924       -0.80504780754616
C          182.34645697487488       -5.49114670114153       -1.95849818487398
C          182.36547738560290       -6.86081368731261       -2.17138148190298
C          181.81156578282088       -7.71567329760956       -1.22132945406972
O          181.81099831600335       -9.06345915372381       -1.38857131701551
C          181.23782822267239       -7.19519021882489       -0.06284615120360
C          181.21686282938012       -5.82617367393626        0.13720063579499
C          182.96848923603679       -2.81878985339623       -0.48667689701861
C          184.25860788779633       -3.48313973189237       -0.53071190426122
C          185.19037261576921       -2.51913746846929       -0.38099676679341
N          183.13841467499324       -1.48068708965336       -0.30133366878109
C          184.46953094339389       -1.27062855708270       -0.23371879151875
C          185.11530070889350       -0.03434385346764       -0.03827301190866
C          184.47796177242932        1.20966582948286        0.13168374826414
C          185.11219050172792        2.45057668603095        0.39636788089289
C          184.13889076708068        3.40444520905878        0.51928935943709
C          182.88033849829415        2.77327916638926        0.32737772623221
N          183.13562326516464        1.44662766174871        0.10317803708656
C          181.61620118717943        3.37431155553133        0.38044263792842
C          181.59129978282778        4.84280251190010        0.58914571074480
C          182.20675237664688        5.70276338354534       -0.32408766414413
C          182.18255793345079        7.07309361183890       -0.13494529589456
C          181.54407898422997        7.60545012114486        0.98375673490135
O          181.54290385177219        8.95401845131603        1.14078011458138
C          180.92974979388856        6.76043306963927        1.90520058116282
C          180.95263376647239        5.38934847013150        1.70307783373806
C          180.39649984959439        2.70699787771569        0.25530861498058
C          179.10914678058796        3.37713310313173        0.23404290743930
C          178.17751065675583        2.41076568692424        0.09743682953670
C          178.89614726464589        1.15425334540747        0.02858673131101
N          180.22569861748860        1.36313108637320        0.11461551031545
H          177.18162511007165       -2.72972166307452       -0.54368365359140
H          179.07999301414335       -4.58777787807226       -0.81522242062559
H          180.94248938359183       -0.85204662599608       -0.18053062820513
H          182.76718239182006       -4.82592553902577       -2.70425928105721
H          182.80751478025857       -7.27008116658420       -3.07349150556212
H          182.23332395191122       -9.31501964412740       -2.22084153765370
H          180.81519226086573       -7.87183193937990        0.66955458545383
H          180.78197453603053       -5.42276474218586        1.04488167162059
H          184.40998356684898       -4.54421551826603       -0.64549919263782
H          186.26345477390953       -2.62007277426815       -0.36581352016133
H          186.17668438859928        2.58769441154143        0.49471398227766
H          184.27916427155847        4.44994016425489        0.74007167853679
H          182.42254086369084        0.74078231366541       -0.04699553867711
H          182.69112062442886        5.29059283278807       -1.20234306198982
H          182.65174909168624        7.74202017803152       -0.84577388925744
H          181.07064471850003        9.21527831740700        1.94272857002137
H          180.43774463414647        7.17868508858525        2.77678078537260
H          180.48505113535163        4.73211249128981        2.42772929469253
H          178.95960441859296        4.44301424901751        0.29324611588287
H          177.10703544699544        2.51706444613563        0.02689457949076
