189
 energy: -345.454414722665 gnorm: 0.000672139128 xtb: 6.5.1 (b24c23e)
Ni          27.22858807394411       -0.03891178381371       -0.05678366382384
C           23.82510550207793       -0.02115564140539       -0.14536823054135
C           24.45167321022006        0.81508655686808        0.75416358525043
C           23.74767740345104        1.67857883251169        1.65206439559497
C           24.68695570926426        2.34209773684773        2.36719172979277
C           25.95908523333609        1.88458615251224        1.89857802080636
N           25.81056998934214        0.94507214721380        0.91648651531231
C           27.17379017304599        2.37437669852240        2.37962134001884
C           27.15349816300399        3.36392097901566        3.38702375691417
C           27.14005139668765        4.21521360394459        4.25137275821415
C           27.12757309323264        5.20938828321821        5.25670913097686
C           28.31764686583376        5.76334023330340        5.74260904060610
C           28.25223788060407        6.73472168918599        6.72556626210971
N           27.10590826079159        7.17413778201872        7.23873192437549
C           25.97027001062675        6.65224201228876        6.78225580370847
C           25.92625572927000        5.67718244243374        5.80166098927001
C           28.40828830307780        1.93851815100450        1.89820400178903
C           29.65502942876098        2.45589180908318        2.36566990780278
C           30.62679317383168        1.79996971171419        1.68577750135998
N           28.60574282189579        0.97663884993702        0.94040161556752
C           29.96651980379204        0.88358440658605        0.81190660653427
C           30.65271819639341        0.00393789926859       -0.02886051587400
C           30.00296093566204       -0.90583387284900       -0.86675289374791
C           30.69992535451878       -1.82649542866269       -1.70701292463639
C           29.75571801966405       -2.53662066387076       -2.37124402228923
C           28.48899250615382       -2.04064902452523       -1.93544814824718
N           28.64707407946803       -1.04358525891635       -1.00659848365990
C           27.27398845014306       -2.51267684458534       -2.43196211906147
C           27.29113685353889       -3.53778860561777       -3.40329957290740
C           27.30043065434128       -4.41787848347084       -4.23837676564425
C           27.30849205482820       -5.44236280263410       -5.21293337272494
C           28.50714704694382       -6.00512703805042       -5.66628103776458
C           28.45884846924852       -7.00442148766275       -6.62197089682021
N           27.32144625437306       -7.46306920942901       -7.13810859590553
C           26.17762148339292       -6.93313557365994       -6.71232348596471
C           26.11655242661561       -5.93063839027869       -5.76081408027628
C           26.04074071080848       -2.00706784833280       -2.01872302031979
C           24.78958263395324       -2.46362307735981       -2.54170256984002
C           23.82267441847070       -1.75833267824418       -1.90805943414509
C           24.48871169879648       -0.87831493424932       -0.99734948694051
N           25.85235241017599       -1.03351565131528       -1.07755336330114
H           22.74175997708682       -0.01151819468933       -0.17764995286362
H           22.67352669090370        1.75170715152230        1.71252972684866
H           24.55075710456127        3.07986929163633        3.14157234739966
H           29.27318085145743        5.43444091329819        5.35226051374206
H           29.15983484369676        7.18203459254567        7.12058166644305
H           25.05352823546281        7.03346241098792        7.22285294912408
H           24.97868795747630        5.27962812521640        5.45866654298936
H           29.75695669283195        3.22240027419411        3.11680511253511
H           31.69631686663890        1.91192765302338        1.76060572788604
H           31.77310818593750       -1.90738072468816       -1.76848297488679
H           29.88858039649502       -3.32388059648149       -3.09563912447329
H           29.45605007896690       -5.66121302059534       -5.27277210063891
H           29.37345473972106       -7.45897797637459       -6.99174762762119
H           25.26845751609956       -7.33050783357935       -7.15436289032868
H           25.16287379285651       -5.52715055034161       -5.44251991731968
H           24.68490415075810       -3.22602823563668       -3.29687829228426
H           22.75268088841673       -1.81671934507357       -2.02849808981279
Ni          64.32243577251302       -0.10587491100482       -0.07253963589744
C           67.72381695792210       -0.21811003932785       -0.18549716629761
C           67.03050476436458       -1.38090058843929       -0.44658002838846
C           67.66493941594850       -2.62426579207570       -0.76114002713481
C           66.67340145486035       -3.52182404258724       -0.97344199602648
C           65.43924206165674       -2.82245037843941       -0.78631463859360
N           65.66223573153549       -1.51372113794865       -0.45970366627094
C           64.18853880857797       -3.42294948014209       -0.93541279894206
C           64.13361698725720       -4.78786990410482       -1.29408275674617
C           64.08953241784278       -5.96002505790456       -1.60410144551721
C           64.03965491811812       -7.32625399329521       -1.96510041255936
C           62.81851464564274       -7.98339222928957       -2.15494315402389
C           62.82533068692040       -9.32136476901340       -2.50710713684639
N           63.94291649437765      -10.02342421286384       -2.67611454587519
C           65.10787709037434       -9.40593278311584       -2.49716815443219
C           65.21048410552267       -8.07195444643177       -2.14488036324146
C           62.99134684818053       -2.73348646098319       -0.74336074496725
C           61.70786569066673       -3.34286071623893       -0.89070686660302
C           60.78959923051081       -2.38582755207321       -0.61182994017069
N           62.86897590547191       -1.41564121321716       -0.38244323645015
C           61.51890441786995       -1.19898044103766       -0.29714718896980
C           60.90158904262731        0.00419238686804        0.05461876051787
C           61.61884130121154        1.16437342129567        0.35574567569318
C           60.99189076202581        2.39575232866089        0.71612471650334
C           61.98732487815173        3.29349085388690        0.91619599721271
C           63.21486694975756        2.60319837263080        0.67687569007738
N           62.98251484701579        1.29453721318900        0.33760347509985
C           64.46448288826340        3.21539787833754        0.77288554502893
C           64.52214387701807        4.58277965266262        1.12137515082529
C           64.57115055219832        5.75706416309069        1.42234927572168
C           64.62696069055634        7.12524917293328        1.77477045874155
C           63.46245091857255        7.85153046811592        2.04969332010630
C           63.57120210422953        9.18775996533987        2.39144877193597
N           64.73631994015794        9.82521331383145        2.47290244944539
C           65.84788888660366        9.14176180863486        2.21262458069731
C           65.84831758978892        7.80320683229955        1.86268576591315
C           65.66014574396297        2.53403255994960        0.54248072553693
C           66.94720685393371        3.15131142725471        0.64107412512493
C           67.86154676497959        2.18847195581418        0.37506607939120
C           67.12741684795047        0.98832288818652        0.11408179447290
N           65.77466615845718        1.21166916119887        0.21474630342137
H           68.80652537780384       -0.25421220600467       -0.22032113747105
H           68.73226474641102       -2.76996805895747       -0.80999556177854
H           66.75071514614031       -4.56511896216044       -1.23434170539867
H           61.88455612811657       -7.44949375140706       -2.02752055860825
H           61.89253280807689       -9.85615912510873       -2.66120562125242
H           65.99990908991151      -10.00831976582188       -2.64308017551142
H           66.18019931838747       -7.60844770770668       -2.00916576272768
H           61.54694835191905       -4.37146036986934       -1.17044586345815
H           59.71428666570945       -2.46122191523443       -0.61406647200479
H           59.92666767189053        2.53866123056444        0.79942818699755
H           61.91345392179548        4.33115085353435        1.19893360331561
H           62.49289205211054        7.37136205888843        1.99517923505985
H           62.68421656476410        9.77530224612314        2.61032941300837
H           66.78101044755699        9.69260836878360        2.28828616526305
H           66.77745877783786        7.28471256894985        1.65908020075590
H           67.10983089139249        4.18882657386110        0.88525411807204
H           68.93705387225580        2.26330980850606        0.35308716143526
C           32.05814904371375        0.02673254706133       -0.02175845295000
C           33.28182539402402        0.04392686640633       -0.00852076287172
C           34.62536449316835        0.05122397982138       -0.00198316080143
C           35.85542162800730        0.04895985103520        0.00304828875659
C           37.19389056596714        0.02678433901722       -0.00593836100644
C           38.42336185969346       -0.01064418235172       -0.02296016065792
C           39.76431121375759       -0.08102032047069       -0.06171076252121
C           40.98400033296819       -0.16915181063224       -0.11535113859733
C           50.57573054042251       -0.13147955590952       -0.02675147899698
C           51.79373545948210       -0.03759466276163        0.05041058012399
C           53.13352843272363        0.03987789051264        0.10889851152213
C           54.36266475676076        0.08147241813096        0.13855987567975
C           55.70104098646794        0.10302368769612        0.15221492614658
C           56.93112716952323        0.09506492051566        0.15361249479942
C           58.27440210598513        0.07839616211668        0.13405513209725
C           59.49746966592735        0.04901252057992        0.09996492830187
Ni          45.78398052301134       -0.53728568863517       -0.34873445218513
C           42.38043754675358       -0.29688392541840       -0.19806589373657
C           43.04963897389037        0.32613711772801       -1.25604976604880
C           42.37810214040902        1.02012426629995       -2.30780023121468
C           43.32744525497793        1.36784474640172       -3.21184175260065
C           44.57635573208914        0.91578878397147       -2.68767004197004
N           44.39836978045169        0.27603426520696       -1.48836491714293
C           45.80466459773393        1.16868061616944       -3.30067572008070
C           45.81248769459825        1.79598423893467       -4.56548364294094
C           45.81764622029377        2.32365725899772       -5.65800385257784
C           45.82315225500253        2.94314052963277       -6.92898702211870
C           47.02042894375780        3.19391835515549       -7.60920117296851
C           46.97066069236567        3.80311541411599       -8.85043005223244
N           45.83314137886666        4.16739514858852       -9.43674759406916
C           44.69070184979677        3.93258447822018       -8.79636704793642
C           44.63105254602534        3.32871587518153       -7.55299678018293
C           47.02541997666124        0.89637239105413       -2.68127155593535
C           48.28389129814182        1.32753505400545       -3.20029393820312
C           49.22013670529385        0.99002869065768       -2.27888235889929
N           47.18563474362451        0.27353614044178       -1.47040446845863
C           48.53123126138220        0.32239238583239       -1.22137371285644
C           49.18212420105732       -0.27005757446872       -0.13461672088275
C           48.51522984455203       -1.08607025972630        0.78450821641460
C           49.18786266561573       -1.85485967537589        1.78213499308549
C           48.24281704660729       -2.61439968004854        2.38997464168261
C           46.99480145253121       -2.27691962337516        1.78376252249251
N           47.16961475334012       -1.34039986447507        0.79797944747115
C           45.76908621479198       -2.79231884888842        2.20855469944110
C           45.76503011770014       -3.78953409870971        3.20800103206415
C           45.76289671340314       -4.65446503428268        4.05886028060101
C           45.76076426851291       -5.65815327565473        5.05475004752389
C           44.56340052858582       -6.19524505144186        5.54150584251015
C           44.61640169987854       -7.17462332299672        6.51732944545135
N           45.75719253143157       -7.63714457447085        7.02235107636099
C           46.89975247174600       -7.13161270954818        6.56477214787715
C           46.95627522185372       -6.15026501654748        5.59114994934279
C           44.54608330586439       -2.30820206852606        1.74158824370980
C           43.28694568032774       -2.68036970314338        2.30295489224617
C           42.34613191423549       -1.92893825676016        1.67870846432831
C           43.03365837583718       -1.13000865595308        0.71555864472654
N           44.38238321140805       -1.36207924640109        0.76290946481556
H           41.31491189303741        1.19412432257796       -2.34551753427402
H           43.20967498471154        1.89767164687949       -4.14330566933455
H           47.96922746338527        2.91362013000557       -7.16787206349999
H           47.88402824916651        4.00938147949171       -9.40089534472406
H           43.78154385867976        4.24277507616988       -9.30336926043281
H           43.67858695824367        3.15618345567932       -7.06659594354340
H           48.41623128267035        1.83901787623562       -4.14001852128076
H           50.28495594117414        1.15560904901908       -2.30750947874126
H           50.24907517465772       -1.82157021156846        1.96868552548299
H           48.36271701605787       -3.32835303160257        3.18879840057788
H           43.61199740205458       -5.84703695325149        5.15794174084658
H           43.70300897783451       -7.60904160055627        6.91332198496067
H           47.81163910627718       -7.53162204991565        6.99868555554226
H           47.90897903062314       -5.76617514015404        5.24709544292244
H           43.15693922798562       -3.40931595584527        3.08650751576066
H           41.27935176213312       -1.91864548125808        1.83350503198774
