250
 energy: -444.124480374388 gnorm: 0.000521613023 xtb: 6.5.1 (b24c23e)
Zn          47.99863984412649        0.00468878680726       -0.01391443938865
C           44.59121876951431        0.06170617151587       -0.11176889441698
C           45.22557734603156        1.28740851280762        0.05011916002135
C           44.55569040268310        2.54720896536364        0.21477696121143
C           45.51752093502381        3.49177184774360        0.36371923382016
C           46.78825221673500        2.82092221599299        0.28122037367881
N           46.57569285112891        1.48629497280954        0.09787303102994
C           48.04166789449843        3.43327746918559        0.40577659683131
C           48.06131977706130        4.90360251344005        0.59605881656509
C           48.59644494776462        5.45846217216002        1.76282763857234
C           48.61287323056407        6.82817738605147        1.94109578583565
C           48.10079548943064        7.67663957720094        0.95363306988611
C           48.13385922226849        9.13471820435807        1.16505901229263
O           48.57992939278331        9.65816770640648        2.15406809304680
C           47.56841632993496        7.12401120471937       -0.21386645025268
C           47.54615334191802        5.75175183123197       -0.38830631984638
C           49.27834305455912        2.77923425601841        0.36718638605386
C           50.56082348180176        3.42374897062199        0.43767838505524
C           51.50280759002037        2.45161978446918        0.33768356924771
N           49.46586993564618        1.43171503636772        0.21509481064123
C           50.80683437831446        1.20607894410662        0.19879101290831
C           51.43246153924041       -0.04848711448865        0.05343589527304
C           50.77419546515584       -1.28461535370892       -0.10341590379780
C           51.43705276149210       -2.54535284071488       -0.26475058418769
C           50.46970772445523       -3.48959448759214       -0.38745215139199
C           49.20457032988070       -2.81399774750072       -0.29604381863670
N           49.42763715523262       -1.47338886828774       -0.13160401649332
C           47.95085832615736       -3.42762008270148       -0.39957704623628
C           47.93077089688042       -4.90262993617796       -0.54749240447920
C           47.38223927326875       -5.49369224901725       -1.68926043890248
C           47.36355421002268       -6.87021581889039       -1.82677244070115
C           47.88815098949429       -7.68543126089610       -0.82075307074073
C           47.87558007453219       -9.15429561638630       -0.94020623555163
O           48.31095077055328       -9.89838152801963       -0.09879906071364
C           48.43538582275396       -7.09473543329814        0.32326413199085
C           48.45928795864923       -5.72007146335761        0.45664848529121
C           46.71401270865788       -2.77072750938364       -0.37170611119357
C           45.42561987462366       -3.40905602640328       -0.43762395265845
C           44.48950172172314       -2.43058102478265       -0.36204438539554
C           45.19287233145964       -1.18456944277693       -0.23742681143249
N           46.53718423577708       -1.42449867108483       -0.24322466269521
H           43.50585554829331        0.07792404444494       -0.12831402572932
H           43.48506785523347        2.67883884218661        0.22243312417344
H           45.38307483484030        4.54888964457222        0.52825162407850
H           48.98385135223151        4.80308542123216        2.53478135792896
H           49.02026889423934        7.26564455488915        2.84626069775217
H           47.70818268579269        9.72672041643560        0.32680341768148
H           47.17314777535949        7.77507413217965       -0.98691627378441
H           47.14374186227613        5.32658962352060       -1.30095482259715
H           50.71902857528199        4.48560215458534        0.53600422515224
H           52.57548403259944        2.56149040209981        0.34992968579791
H           52.50651197819383       -2.68210664945007       -0.28587522654926
H           50.59997655625718       -4.54868723961720       -0.54094869222214
H           46.98571529746256       -4.86373580625492       -2.47764069364691
H           46.94139597382797       -7.31989590764612       -2.71968437084434
H           47.42521496532940       -9.53123835216521       -1.88330191868711
H           48.83718832492752       -7.73527702574841        1.10103790357481
H           48.87292468567662       -5.26581626066453        1.35000328938461
H           45.26227503842978       -4.47181272793321       -0.51798683422193
H           43.41575693481060       -2.53243311032265       -0.37935201434760
Zn          88.43782661240313       -0.03987333742873       -0.05264247017003
C           91.84623156945933       -0.08469895749822       -0.09371591617115
C           91.21155919164467       -1.32053253429368       -0.12271249838313
C           91.88104842454096       -2.59123652158984       -0.12474109147999
C           90.91872381507663       -3.54692100558603       -0.13299563610670
C           89.64827572177501       -2.87060345408280       -0.14833059841255
N           89.86127227970975       -1.52353892629901       -0.13388806261257
C           88.39372523774419       -3.49333029759401       -0.14429410044232
C           88.37211986995206       -4.97558619960253       -0.16040778725874
C           87.80038404705400       -5.68361626806258        0.90162020654565
C           87.78216152768614       -7.06471949310824        0.89139269710978
C           88.33002106833214       -7.77174689801177       -0.18436356294696
C           88.29489194614911       -9.24491921280750       -0.17396719687848
O           87.81235329207318       -9.89723113510951        0.71654342235669
C           88.89897792631565       -7.06604554598204       -1.24749215908592
C           88.92197717304350       -5.68278218485841       -1.23339101073372
C           87.15676649571164       -2.83877855580803       -0.11999903913893
C           85.87461787427324       -3.48506542888825       -0.17971770396989
C           84.93279004009952       -2.50801006912796       -0.15312955212536
N           86.96954734594020       -1.48361318595618       -0.07212746266332
C           85.62868223155205       -1.25666751494870       -0.08350534214785
C           85.00327011992671        0.00537444893259       -0.03477098242177
C           85.66173920941547        1.25013692677163        0.01659218709874
C           84.99925975535766        2.52110371328622        0.04240791320660
C           85.96681261978024        3.47251141452472        0.07418570399959
C           87.23172107245220        2.79022450171017        0.07594806832840
N           87.00836715470111        1.44029714795276        0.03276422971677
C           88.48592746635404        3.41164451234030        0.08005489961757
C           88.50679524754872        4.89225751434510        0.15246462673490
C           89.07227035307517        5.64468683646801       -0.88102621127979
C           89.09286157856431        7.02635991374939       -0.81306594540342
C           88.55288191033219        7.68487731712039        0.29445002924060
C           88.56760325785282        9.15526731992621        0.39404302673426
O           88.12009929836496        9.76759416445192        1.32989059837362
C           87.98832820532178        6.93258243206527        1.33003731950177
C           87.96293228938679        5.55332432732864        1.25837547593469
C           89.72316256245477        2.75690482108632        0.02693231522202
C           91.01147223215666        3.39695726258249        0.07650137168736
C           91.94783949907043        2.41728970240633        0.02300063600695
C           91.24457739357348        1.16705764722689       -0.04844442377856
N           89.90014150728641        1.40631625474968       -0.04186783160720
H           92.93174546649848       -0.09913236896599       -0.09117796678064
H           92.95158364029051       -2.72315976450902       -0.11196363270831
H           91.05272810601062       -4.61669446374642       -0.11719991411387
H           87.38564140316286       -5.13882189004034        1.74229769449653
H           87.34592165985541       -7.62053963847279        1.71446914546497
H           88.75600274550168       -9.71835319391375       -1.06703266671041
H           89.32219344441572       -7.60647301844193       -2.08807203458921
H           89.35234337668825       -5.13828570319098       -2.06641205129783
H           85.71675537198516       -4.54929410357358       -0.24845845199662
H           83.86041817801392       -2.61739318671159       -0.18322533969652
H           83.92994131647188        2.65999411871077        0.03029908634004
H           85.83686661586289        4.54268108362580        0.08107798710579
H           89.48086434205831        5.13755096728034       -1.74792087123097
H           89.52867762392265        7.60227765638419       -1.62308001874801
H           89.03278157756743        9.66651236838105       -0.47578701972246
H           87.57443235111030        7.45183633967719        2.18778464397727
H           87.53627481141380        4.97287189583273        2.06865405618300
H           91.17449568929273        4.45979900148894        0.15631791428238
H           93.02155208694963        2.51970563109977        0.03900314475233
C           54.06035670359039       -0.07144625306080        0.05482559241764
C           52.83816345428954       -0.06549535739955        0.05651546618151
C           55.40971778518264       -0.07590188238419        0.05071610570006
C           56.63203272456345       -0.07536052831182        0.04846591359737
C           67.54289826390921       -0.03021316487648       -0.01527052561234
C           66.32035992753703       -0.03465375118768       -0.01230340113199
C           68.89177538142019       -0.02410918974657       -0.01277059252848
C           70.11429976550890       -0.01885771716481       -0.01050612732406
C           81.02558175283950        0.02402920568706       -0.04735873425154
C           79.80333310780071        0.02227607721819       -0.04724388285921
C           82.37515948921643        0.02217700057547       -0.04551499608507
C           83.59731946966043        0.02145591172437       -0.04107100950385
Zn          61.47658520604976       -0.05449478760066        0.01308205449233
C           58.03725801651574       -0.07089310706968        0.04091726856916
C           58.67785235732523        1.13723929347569        0.38284234550085
C           57.99699096147731        2.35607182554907        0.70516954637737
C           58.95052059506126        3.28019211364652        0.98844042537877
C           60.22359411185585        2.62976938945638        0.85028758801162
N           60.02120692931963        1.33048019320833        0.47018102662139
C           61.46894930684101        3.23753988677556        1.04824832623510
C           61.46550604659791        4.65046666715273        1.49746028425962
C           62.04776291328897        5.64728874879820        0.70826064038909
C           62.04376608247727        6.96286530825943        1.12971254803011
C           61.46185550176262        7.31268124432335        2.35283010476035
C           61.47541985476096        8.72243516660304        2.78305425339262
O           61.96781745517907        9.61388523399218        2.13985642681437
C           60.88056422890197        6.31791515792790        3.14291677807516
C           60.88060237014366        5.00148167535521        2.71761186198387
C           62.71709586012141        2.63222109349624        0.86224051332818
C           63.98757592281576        3.25081511399714        1.11950016815662
C           64.94505468069433        2.33476601176406        0.82384700145214
N           62.92525024406986        1.34910831977895        0.43253859152916
C           64.26931228042181        1.14663527430487        0.39384525426064
C           64.91557193497036       -0.03990063220066       -0.00838769960318
C           64.27462617883991       -1.23157362348702       -0.40386963457978
C           64.95447165269979       -2.41349266143388       -0.84410129885261
C           64.00081952172361       -3.33805763880831       -1.12572743261037
C           62.72888886336198       -2.73101704541593       -0.84910590012564
N           62.93194085240331       -1.44607909580891       -0.42255269152416
C           61.48374506812566       -3.34861209225760       -1.01388155788536
C           61.48525507608753       -4.76295911908731       -1.45884266694537
C           62.08559918779284       -5.75109206351339       -0.67333312402655
C           62.08304510863261       -7.07206208877375       -1.08452399008638
C           61.48400432693996       -7.43140757636255       -2.29434934513555
C           61.46844885930057       -8.83119413423592       -2.75613212948768
O           60.96296200874120       -9.18950994044908       -3.78906250175877
C           60.88626609400469       -6.44248890723688       -3.08282565738942
C           60.88453963064343       -5.12461344537946       -2.66877276338043
C           60.23591394983161       -2.75233918428569       -0.79768131727865
C           58.96685502683291       -3.41460312044160       -0.91604627702579
C           58.00924073942346       -2.49882095891105       -0.62016862873648
C           58.68366137411194       -1.27349668652714       -0.30888804953829
N           60.02731399011881       -1.45461270597384       -0.41537462107722
H           56.92619121019813        2.48339983912105        0.70583879824129
H           58.80554646696235        4.31488164111945        1.25412402984650
H           62.48826822147112        5.38148246087416       -0.24607742036421
H           62.48882379842808        7.74239830757824        0.52068731747239
H           60.98879752607220        8.90403896206299        3.76512755063514
H           60.42974879434341        6.57981642097306        4.09467927066399
H           60.44059675290132        4.22971738846384        3.33922975209869
H           64.12872866822286        4.25286734123247        1.49109252638696
H           66.01539272650325        2.44492544769533        0.89499302929318
H           66.02454388956393       -2.51363512122369       -0.93225171492117
H           64.14508399025459       -4.33857064165511       -1.50036774595681
H           62.53971391228513       -5.47728552165809        0.27241019974619
H           62.54586071077179       -7.83328878315426       -0.46483593551898
H           61.96742485646216       -9.54461196463801       -2.06602183691613
H           60.42701184828771       -6.72990771646230       -4.02257485210468
H           60.43120212283888       -4.35879419278389       -3.28802762043358
H           58.82737077947005       -4.45071099898474       -1.17894744974021
H           56.93974039352795       -2.63572804233947       -0.60501018549205
Zn          74.95849641262969       -0.00020626387482       -0.02113563725198
C           71.51910937816201       -0.01435808445739       -0.00894846195086
C           72.15907137301838        1.18969520203259        0.34863040065567
C           71.47749776699968        2.40487384661211        0.68318998683186
C           72.43056362961168        3.32700088029338        0.97436236239108
C           73.70411715212909        2.67939560490905        0.82738323648227
N           73.50218998828194        1.38283008383202        0.43717925601167
C           74.94897117566472        3.28888151114010        1.02147722374203
C           74.94446235462989        4.69888075299241        1.48041757850938
C           75.51225823119454        5.70451954150991        0.69209338995682
C           75.50660992423937        7.01683033049953        1.12384677182013
C           74.93792344955085        7.35413810132210        2.35659967833804
C           74.94756702155090        8.76097487003799        2.79677483027151
O           75.42333228875107        9.66055025221246        2.15259677043265
C           74.37179746698162        6.35029072152408        3.14615186397299
C           74.37293370457989        5.03727910739577        2.71039437694134
C           76.19768441968209        2.68810526250902        0.82413103777410
C           77.46806816021915        3.31127758542261        1.07086765369850
C           78.42621145947665        2.39757542373257        0.77054989661667
N           76.40654020929615        1.40513477586524        0.39491367084761
C           77.75111084649929        1.20593842845715        0.34921832833201
C           78.39785769879147        0.01634861313721       -0.04176390428270
C           77.75793499614211       -1.18033291191037       -0.42270363941462
C           78.43902616978511       -2.36728897886957       -0.84727976601162
C           77.48607000543326       -3.29363693415559       -1.12525287930424
C           76.21318066377887       -2.68234542134301       -0.86273082844610
N           76.41499114174151       -1.39414110830728       -0.44635194078559
C           74.96823615422066       -3.29873406582677       -1.03532959358236
C           74.97243079703414       -4.71681054326984       -1.46827513639545
C           75.56237473864641       -5.69806725739298       -0.66632317798372
C           75.56341968181968       -7.02284614616836       -1.06484378857620
C           74.97845648747274       -7.39317118428961       -2.27827948663381
C           74.96726108564025       -8.79730837982023       -2.72622416990466
O           74.47533253148310       -9.16567755231716       -3.76217286937726
C           74.39123542206977       -6.41120770130392       -3.08325448980213
C           74.38586626405322       -5.08941045103996       -2.68180189602098
C           73.71971917160951       -2.69844286850510       -0.83636560760259
C           72.45020749160808       -3.35719888925169       -0.96831371289105
C           71.49198188682688       -2.43870018708260       -0.68293583804486
C           72.16640805599357       -1.21543575617429       -0.36356926153817
N           73.51035976938505       -1.39966051485815       -0.45718946899191
H           70.40658979214300        2.53131185834168        0.68613072071453
H           72.28504682937130        4.35887613714851        1.25051753331910
H           75.94257868145270        5.44844787618048       -0.26952019149344
H           75.94017522086531        7.80333169452723        0.51550340346252
H           74.47447484529366        8.93185221082726        3.78733450437959
H           73.93172345215383        6.60240132265453        4.10555434080941
H           73.94414201178104        4.25841285248487        3.33100365090523
H           77.60858450558892        4.31471635284650        1.43885395888951
H           79.49669625056899        2.51079793995872        0.83403443432408
H           79.50946454269778       -2.46943452541354       -0.92827191389337
H           77.63130928747206       -4.29791764503261       -1.48927856462804
H           76.00570134056535       -5.41563961374649        0.28199822376504
H           76.01828827270283       -7.77852616978163       -0.43261922583771
H           75.45658051034823       -9.50420317445636       -2.02259879239207
H           73.94298475923664       -6.70714417364872       -4.02567148189594
H           73.94086211573786       -4.32912637118190       -3.31378332235568
H           72.31032416979204       -4.39290348554299       -1.23266127719094
H           70.42205791761501       -2.57310345477752       -0.67897155211453
