242
 energy: -411.420965480690 gnorm: 0.000761491196 xtb: 6.5.1 (b24c23e)
Fe          41.81665045867005        0.46536531902514        0.31496866235202
C           38.42548107481144        0.40210839636947        0.35093897246265
C           39.09369694196372       -0.79462527807637        0.50491018551852
C           38.43125498442626       -2.04988072105094        0.69375472873595
C           39.39742644107508       -2.99774250409473        0.71740327360284
C           40.64928064715323       -2.31950844595225        0.53896557128128
N           40.45129423176225       -0.96866355378681        0.43888185384429
C           41.87875150263474       -2.96560864810714        0.47452851148986
C           41.90503663006965       -4.44711824459177        0.51422156238483
C           41.31941650622407       -5.18303659955399       -0.44396926956902
C           41.32165470702226       -6.68803482873383       -0.43118744205141
N           42.27622066899326       -7.21283131304487        0.54693756145801
C           42.71813238917930       -6.44987543256380        1.59121828862577
C           42.59480623730225       -5.10914998179297        1.60939536152794
C           43.08414888372010       -2.28327654121936        0.38353599488984
C           44.36114414221277       -2.92937808527856        0.31174604325108
C           45.29546650058126       -1.94895555021798        0.30017995118518
N           43.23930529766078       -0.91763304146586        0.37743468817970
C           44.58688428723607       -0.70814614370776        0.34794129089018
C           45.22751495061997        0.53490264956009        0.37504023228756
C           44.53604931704073        1.75034486029776        0.35302204089705
C           45.19176520873172        3.02042367416232        0.38512881428390
C           44.22120742751060        3.96000550306915        0.28777670704051
C           42.97486725760040        3.25944842557628        0.19254811843275
N           43.18362583951723        1.90284017583136        0.25770600422502
C           41.74594573396180        3.89015047507708        0.05289836843056
C           41.72098291835771        5.36837334986280       -0.05320325186778
C           41.10324563507672        6.12838278888047        0.86525947882005
C           41.05488197548808        7.63033135247488        0.78051193782146
N           42.00368598660830        8.14031538593973       -0.21085855404875
C           42.48272592498556        7.34474113062482       -1.21353123700351
C           42.40161316076541        6.00135578794767       -1.17104698662394
C           40.54135668237929        3.19684318678732        0.02148266867792
C           39.26113551155577        3.82189185809426       -0.15019352223992
C           38.33101604297095        2.84317622765918       -0.05282917807960
C           39.04424608798227        1.62016860490365        0.16035048452468
N           40.39570295002741        1.84440375660801        0.17853394330719
H           37.34142837083644        0.38245076351929        0.36888759971074
H           37.36386248055383       -2.16996117520787        0.79231795041896
H           39.28585988430792       -4.06132574313379        0.85301692094936
H           40.80219397854136       -4.72353315431025       -1.27814274983877
H           41.59905591455100       -7.07515026131038       -1.42182682750134
H           40.30780899607473       -7.06830025932356       -0.20716696812989
H           42.21266470488698       -8.20797800865355        0.70138797518568
H           43.23965599133957       -7.00006264093827        2.36788043741174
H           42.98997906550380       -4.51985029418806        2.42447938713081
H           44.51286250030381       -3.99591155133630        0.27487002890761
H           46.36884823383456       -2.04125818025968        0.25724928959271
H           46.25760553480567        3.15865768213867        0.47097318151353
H           44.32857944891568        5.03255683218141        0.28533944168947
H           40.59528211738606        5.69187944867733        1.71726954090989
H           41.30628474737618        8.07338323875583        1.75447563436368
H           40.03173629632116        7.96453327991206        0.52708204110287
H           41.91070283859167        9.12480790201089       -0.41158073590907
H           42.99666445039719        7.87504434049569       -2.00885165314388
H           42.82663024354814        5.38795737076835       -1.95264292587798
H           39.10653201047782        4.87380934470755       -0.32790328358761
H           37.25747342503735        2.92159899304423       -0.12251669142749
Fe          82.02821993083920        0.29619613356333        0.24788102754192
C           85.40963163138098        0.22640443420058        0.19858490919001
C           84.79069425466116        1.43839094562783        0.42809076924120
C           85.49456566103967        2.65955068045221        0.68089673022305
C           84.56516782619610        3.64412252295197        0.71208147019682
C           83.29446632449918        3.02455473341673        0.46605297159981
N           83.44238984682264        1.66882912209017        0.34562706374807
C           82.10116975630625        3.72028691289573        0.30230575636128
C           82.12909987740588        5.20099631055692        0.31983635986017
C           82.85017584116815        5.90189546934551       -0.57033338113404
C           82.90649235916155        7.40580150469566       -0.57025889685059
N           81.86808107292903        7.98053822963070        0.28676680880177
C           81.27629923069718        7.24812011509491        1.27744173844942
C           81.34245720903863        5.90406704831528        1.32014167870637
C           80.88037726812838        3.08092645456416        0.12687513895046
C           79.63944752681628        3.76244726035333       -0.09416620772500
C           78.66706484101064        2.81861459004665       -0.08571473921676
N           80.66893741082978        1.72641456947942        0.21252505313229
C           79.31666214657962        1.56355317082168        0.13048815192721
C           78.62964152376148        0.36484957189339        0.34962552738839
C           79.28039827482557       -0.86173720474397        0.51625040866052
C           78.59412727431396       -2.09334600689566        0.75329501152205
C           79.52369072335304       -3.07634788987807        0.67592262119314
C           80.77564006899158       -2.44117508596208        0.38894138523590
N           80.61667475711728       -1.07799552413518        0.34271091386765
C           81.95746250385805       -3.12634022659423        0.13533079989474
C           81.91551772654570       -4.60542362142438        0.07519007741022
C           82.64162663389678       -5.36803655326674        0.90874544236934
C           82.62404483505600       -6.87217584760819        0.85880571242012
N           81.51024081692364       -7.36713010524447        0.04794110658564
C           80.90987738825670       -6.57733209014966       -0.89239732627510
C           81.04653398817727       -5.23800624362603       -0.90402229122584
C           83.17224071009447       -2.47756029632983       -0.05853373206869
C           84.40867317320264       -3.14408886836448       -0.35193678342736
C           85.38035939308311       -2.20130300237572       -0.31827768918600
C           84.73539547895864       -0.95711954475052       -0.02441421005032
N           83.38106085531253       -1.13199644262666        0.08660981355940
H           86.49363520456265        0.20375832833627        0.18622823554554
H           86.56249795013856        2.73475966245426        0.81273370216186
H           84.71431800766517        4.69707871250202        0.88906245550392
H           83.44065149032036        5.41264304007149       -1.33611035471582
H           82.76083648690035        7.79071512459989       -1.58948461651351
H           83.90236712895511        7.74891052234253       -0.23397088321068
H           81.95572978255684        8.97376762677278        0.44165719436521
H           80.69030194669728        7.82778676897042        1.98343532942054
H           80.83058171891770        5.34117816445057        2.08759123508797
H           79.53578918336959        4.82614631768898       -0.23517970015184
H           77.60336388741283        2.94582567114272       -0.20825027472501
H           77.53640976308881       -2.17910737032905        0.94441368247707
H           79.38468761936760       -4.13789393510332        0.80201640258656
H           83.28955310190770       -4.93278487995159        1.66053863046578
H           82.51876781206740       -7.28408984868185        1.87222610864599
H           83.58066426105437       -7.25044508006369        0.45307598079850
H           81.53495231955371       -8.35906817281456       -0.13556083828019
H           80.25812930032151       -7.10507007261271       -1.58128278176368
H           80.52741811295387       -4.62708283950628       -1.62871363416180
H           84.50841803256577       -4.19769733724855       -0.55725020099814
H           86.44077653919969       -2.31878938792183       -0.47714311417271
C           47.85314563747338        0.58932910514042        0.44408914721433
C           46.63098348823180        0.56355941054508        0.41200563382973
C           49.20080247846720        0.61832887730439        0.49009747547838
C           50.42304281309450        0.64289537810016        0.52656040873599
C           61.25639309406085        0.68337135688193        0.60120658495560
C           60.03213709582634        0.67482514761562        0.60027679687644
C           62.60224198362689        0.70906805824327        0.61900069768878
C           63.82557096840716        0.74854921918348        0.64974308716111
C           74.65848333401853        0.47903291419179        0.50402356323933
C           73.43896158741485        0.54195802108883        0.56429448349515
C           76.00538299626827        0.42511291364043        0.44706384012028
C           77.22653236570343        0.39490113449223        0.40007147543256
Fe          55.22768627479508        0.73611366829942        0.64710926028383
C           51.82451956463473        0.67570440437324        0.56981765778935
C           52.49291117647070        1.73319792394476       -0.06199204447536
C           51.82881178203110        2.82656055008301       -0.69751200283525
C           52.78858569437264        3.55315090222095       -1.32262803948366
C           54.03305789719085        2.88589945984986       -1.08273119443750
N           53.83998880288128        1.80538989219487       -0.25731627137170
C           55.23514213391179        3.21719941643267       -1.69800664234883
C           55.24322981320444        4.29355090882586       -2.71316119008337
C           54.47910522065584        4.21969299668085       -3.81601184798975
C           54.50605529040160        5.26584983438030       -4.89651378710762
N           55.18527863265320        6.48183763218176       -4.44610699116613
C           56.05660565246885        6.46264399986614       -3.39308756534043
C           56.10756966863588        5.44502632042571       -2.51316719707973
C           56.43032864320909        2.56370022379123       -1.41635288594445
C           57.66601245000574        2.80909485773999       -2.09713401226330
C           58.61677058524347        2.08517747482511       -1.45576519839756
N           56.61791173377117        1.65411140453107       -0.40579194187840
C           57.95739589122481        1.39913453989112       -0.38979831779900
C           58.63236847933516        0.68651657399472        0.61004534356890
C           57.96009745480588        0.01546212422566        1.64193260355212
C           58.62247791280877       -0.63302574307103        2.72894679387065
C           57.66121352772350       -1.26395084232057        3.44832078053998
C           56.41752388196824       -1.01758332381471        2.78142375132995
N           56.61405271641971       -0.18205886983979        1.70764750870333
C           55.21433805389955       -1.63197904840700        3.10590313809479
C           55.19092232890235       -2.63685773920980        4.19171904966580
C           55.95261761544050       -3.74244837073676        4.14936264992370
C           55.94768294506835       -4.77556305144707        5.24364892189586
N           54.81114925005402       -4.59170564588116        6.14809189885275
C           54.17378466293513       -3.38653763991347        6.25033047225166
C           54.29642123430182       -2.42322622642698        5.31821896375960
C           54.02274458001678       -1.35185873500558        2.44228422977165
C           52.79031213337503       -2.04464539144774        2.66987619378760
C           51.84368347999941       -1.41156807288038        1.93383335128204
C           52.50095682094962       -0.33450059339589        1.26271148946468
N           53.83848984342809       -0.33954726383606        1.53602590495315
H           50.76592266989732        3.00416426373864       -0.66158836493884
H           52.67237724784724        4.45877902642971       -1.89540841128814
H           53.85467485773753        3.35715385561137       -4.01788682425367
H           55.00467866964455        4.86851257231028       -5.80001772970064
H           53.48039099185104        5.53384348709992       -5.18699375361453
H           55.36363234857026        7.15597524944687       -5.17553960208706
H           56.64905059754391        7.36463085096173       -3.27783834203240
H           56.75429933207294        5.48343010678815       -1.64822701991742
H           57.78205301837661        3.45032495337041       -2.95593097763619
H           59.67158582415060        2.01881192485739       -1.66927879185620
H           59.68501425719403       -0.59897553262196        2.90925898353538
H           57.77656351764746       -1.84339092713554        4.34985358127655
H           56.61732473102122       -3.94509212335539        3.31781073900764
H           56.89348305380551       -4.72826095051502        5.81444808076408
H           55.88167268640650       -5.78413258031416        4.81229012085142
H           54.84326142072807       -5.16287657175458        6.97939124421421
H           53.50575356618875       -3.29562985348658        7.10075506600404
H           53.74786624918597       -1.49525686689326        5.39393063157449
H           52.67371664550868       -2.90440524929458        3.30954746050868
H           50.79171845231259       -1.63403625658561        1.85369220925590
Fe          68.63729627953541        0.87862673059320        0.79801762767109
C           65.22408796108097        0.80198179152928        0.70337723770812
C           65.89832807030940        1.63624390594701       -0.19891745254167
C           65.21999400465961        2.49625034413103       -1.11683121692511
C           66.17697231484479        3.20901257146910       -1.75903017562138
C           67.43820987960405        2.75318111325905       -1.25583132945092
N           67.24791161526127        1.79868004115509       -0.28446628440133
C           68.66662528448754        3.20304853354846       -1.71884758068229
C           68.70256518907946        4.24003235180387       -2.77689679442788
C           68.19892828493863        4.01897321144212       -4.00162044392156
C           68.28234026363049        5.03247266026982       -5.11081175075369
N           68.68008239165640        6.34823406880784       -4.60629231936170
C           69.31327159602870        6.49008790731055       -3.40335947972107
C           69.32866567779507        5.51650896925580       -2.47374940641881
C           69.88122679514692        2.69413126046019       -1.27120060811064
C           71.14417977117904        3.04165370157340       -1.85024854100046
C           72.08135725630177        2.29183455072177       -1.22145867906500
N           70.04665707648034        1.74458093026239       -0.29522098179999
C           71.38889087128697        1.50254721185745       -0.25198698834820
C           72.04092012681362        0.64586617029999        0.64062562907248
C           71.37205128800034       -0.05157884062722        1.65323198020227
C           72.05397785264164       -0.80200474496561        2.65986169074324
C           71.10562307749959       -1.24863871163659        3.51866428758922
C           69.84417853805687       -0.79935139043872        3.01052310883086
N           70.02646260231430       -0.05080491553772        1.87328844691044
C           68.61892889854013       -1.11130440047523        3.58684727144611
C           68.59554702824580       -1.92898099889341        4.82297414403384
C           69.05459208724390       -3.19001036194221        4.84883800651009
C           69.04330624674701       -4.03467653024843        6.09475266822971
N           68.21200661626716       -3.43560924716018        7.14075068912584
C           67.89766867634319       -2.10567990683892        7.12776088428871
C           68.03096734377884       -1.34176518876680        6.02727399389865
C           67.40157646506435       -0.72807429641710        3.03774884278371
C           66.13482376163317       -1.17087712725817        3.53843871258973
C           65.19023877407353       -0.67932177441521        2.70072332933160
C           65.88219720243399        0.07668381616415        1.70437402874472
N           67.22917053659701        0.03601566694801        1.90976965079523
H           64.14915267029193        2.55221720057097       -1.22919906685519
H           66.04895931023860        3.97547837212496       -2.50585275767757
H           67.76792314323185        3.06314475239991       -4.27583225647431
H           68.99782721470014        4.69409313756607       -5.88289328368901
H           67.30422253232081        5.13537919360524       -5.60195819725074
H           68.90737386073782        7.01992357841051       -5.32434934497006
H           69.73634174383939        7.47376412584265       -3.22649576316355
H           69.77723516170693        5.67301318116937       -1.50316787274372
H           71.28409701196196        3.75359253374582       -2.64749702337432
H           73.14676026424449        2.26870188617735       -1.38483810295322
H           73.12209957175108       -0.94206242669559        2.70354285958157
H           71.24166946589494       -1.82737469150962        4.41751975828493
H           69.46639272913666       -3.66521508536689        3.96626658251952
H           70.07436868885360       -4.17344059025646        6.46885055222471
H           68.64454665717962       -5.03427166340494        5.87111547421942
H           68.29389780462091       -3.87783020446193        8.04402849867099
H           67.46590326878551       -1.73156670979242        8.05048366825440
H           67.73157288339591       -0.30349031597220        6.02337460631890
H           65.99781683643963       -1.79171053539750        4.40886403751354
H           64.11999349033638       -0.80147044187152        2.74592890496669
