464
 energy: -759.595894921336 gnorm: 0.000859167837 xtb: 6.5.1 (b24c23e)
C          105.65109310824535       -0.02221524093895        0.06769689613997
C          106.25180120296719       -1.21696562959474        0.44256553811917
C          105.59259179637198       -2.42745221006444        0.79728224444005
C          106.54903212934181       -3.35219240548041        1.10930291281532
C          107.82363027653280       -2.73330840959527        0.96510459503161
N          107.59339387815146       -1.45173202847595        0.55144932657487
C          109.08220001591832       -3.30335995598776        1.18504106758666
C          110.30268127362784       -2.65121273413887        0.99353993807580
C          111.59186506034163       -3.24217593721186        1.30412265736052
C          112.52181468887107       -2.31669718584154        0.99012666707495
N          110.47090982356487       -1.38611425052066        0.51961271559125
C          111.80072273695436       -1.16110481290246        0.49304972141540
C          112.44807377734996        0.01132200856329        0.05530425187432
C          111.82076717617534        1.19237300399280       -0.38399961294866
C          112.47029977145100        2.35480469261079       -0.87665829543967
C          111.50904793885344        3.27273241096845       -1.19848220225897
C          110.24066179126631        2.70020413860847       -0.90541294423552
C          108.98300856540878        3.28546357148632       -1.08895264097762
C          108.96240908465874        4.67859959551449       -1.59740952515031
C          108.33925145963278        4.97728047239821       -2.81024583563258
C          108.32411481379097        6.27823319286030       -3.28969105108570
C          108.92608277443749        7.29712771551359       -2.56373481574996
C          109.54560394974609        7.00902690406178       -1.35526227346431
C          109.56692933584409        5.70827974612557       -0.87468572134855
C          107.76155787774286        2.65309116059873       -0.83580611101716
C          106.46348589397091        3.29483348463142       -0.97486155072723
C          105.54117867180038        2.36589016955372       -0.65198924825061
C          106.27476017594846        1.16095557388248       -0.30673371469540
N          107.60868542562000        1.37399874050597       -0.41754714630834
N          110.48070039103807        1.44000940571733       -0.42461190025049
C          109.10423687771009       -4.70803490264581        1.66313166185861
C          108.51502793327445       -5.05225002221995        2.88039674739058
C          108.54030707930039       -6.36566961289965        3.32510439467513
C          109.14773937779977       -7.35084437591132        2.55856842258203
C          109.73331521706044       -7.01687415852375        1.34486454714336
C          109.71487816964326       -5.70385855959641        0.89942723409890
H          104.56573281762641       -0.02233980123885        0.06953157746816
H          104.52262144940357       -2.56174507057370        0.80306805032014
H          106.39192947581807       -4.37645375359931        1.40630609626190
H          108.32248548881435       -0.77524006982224        0.35153782530366
H          111.74230319584842       -4.22451445836247        1.72167223412627
H          113.59310463158612       -2.38157511937322        1.09117893252681
H          113.53761455621168        2.46311310601938       -0.98131709691034
H          111.66202405621208        4.25513037918937       -1.61450578090126
H          107.88095153366355        4.18051310621382       -3.38544433804695
H          107.84137836642522        6.49724565435635       -4.23568890545848
H          108.91226032369977        8.31405912691539       -2.93915863328357
H          110.01407156882352        7.80170292976496       -0.78238416543810
H          110.03879804752957        5.48877084286854        0.07672295119507
H          106.30499702377091        4.32069414874423       -1.26630856053661
H          104.46654303715914        2.45884326760772       -0.63249353348105
H          109.75571393373573        0.78425762568681       -0.15260007583058
H          108.05274375167278       -4.28197087315340        3.48783706443383
H          108.08499819555669       -6.62043633855756        4.27576338340520
H          109.16528317284892       -8.37735465740732        2.90681104427955
H          110.20657013689508       -7.78322466528586        0.74101387069373
H          110.16246406828239       -5.44638404850882       -0.05403158383563
C          188.79911011502378       -0.00537861983519        0.01348412501466
C          188.20824904662101        1.15281561480012       -0.47471692866123
C          188.87745789037504        2.29669921538611       -0.99366355894085
C          187.92902216793090        3.21017310502031       -1.35861275073837
C          186.64955569233328        2.65908844299372       -1.06213025128832
N          186.86904895491944        1.41490413808949       -0.54196378532364
C          185.39568522881447        3.24606104907614       -1.26374328250505
C          184.17067013215529        2.63847400287561       -0.97663843317154
C          182.88593198449837        3.29710359712018       -1.13026781017081
C          181.94920591194892        2.39712209093977       -0.76641470191365
N          183.99341559551198        1.37276644015804       -0.50851359835344
C          182.66184579080760        1.19358333488944       -0.38365555782835
C          182.00558173781621        0.01355298409548        0.01618503760426
C          182.62127672966400       -1.18749257506740        0.41282632492030
C          181.96046812706979       -2.38411807802159        0.79792332066488
C          182.91363991355394       -3.30149041400268        1.14385759557274
C          184.18799459092565       -2.68826948488636        0.99174421219432
C          185.44039596489827       -3.26020675529483        1.23994367559954
C          185.44989000214406       -4.64738634678319        1.76532196680453
C          186.06425919910376       -5.67222673425570        1.04410209389958
C          186.07149163329774       -6.96888973418640        1.53556496619434
C          185.47073854162781       -7.25764471539044        2.75338743524297
C          184.85953809460403       -6.24344653666121        3.47805715240695
C          184.84578082542254       -4.94642883025394        2.98749447808576
C          186.66688649710309       -2.62103356981849        1.03243187606013
C          187.95939331063471       -3.20794983327823        1.35071749417884
C          188.88927897033054       -2.29473057453860        1.00565331587525
C          188.16586903626549       -1.14724010801657        0.48673195532738
N          186.83031398221138       -1.37487354786835        0.52806175873805
N          183.95970161308523       -1.41656732023122        0.53683688702541
C          185.38507215544902        4.61766055630235       -1.82996367466243
C          185.99347943337222        5.67300500564233       -1.14916214243804
C          185.98428825559776        6.95181412128706       -1.68589841634492
C          185.37311396000035        7.19153262888285       -2.90907700308646
C          184.76689390606299        6.14660474878280       -3.59321815472881
C          184.77001305805138        4.86759427675215       -3.05766152916615
H          189.88444903628886       -0.01137370649721        0.01890342230453
H          189.94825738334666        2.39212523933383       -1.07843862636653
H          188.09501912913939        4.17889262287098       -1.80132776137098
H          186.13412303474266        0.77842046342903       -0.25221231567920
H          182.74270585999787        4.31370065621825       -1.45890096955630
H          180.87756725236974        2.51373553273054       -0.74952485450890
H          180.89090446478443       -2.51860471753468        0.80625330743552
H          182.75159205325127       -4.31606061534247        1.46944261034123
H          186.52262950303322       -5.45109041600458        0.08664101237406
H          186.54765826763523       -7.75798143837508        0.96414760455586
H          185.47918279947515       -8.27142675219320        3.13738278887021
H          184.39219721499654       -6.46277241562451        4.43169714648257
H          184.38070074028303       -4.15319205090741        3.56235524895274
H          188.10912572588376       -4.18106242123684        1.79010597799136
H          189.96293432036171       -2.35877377195982        1.08950775517044
H          184.69110428387091       -0.74602798414772        0.32452778259278
H          186.45888391969572        5.49145756538696       -0.18664752513178
H          186.45578200466875        7.76524508632335       -1.14554662467658
H          185.36896316282190        8.19126212993936       -3.32836670500481
H          184.29017537548262        6.32786872518316       -4.55017694704622
H          184.30742175105584        4.05007069606460       -3.59931454038464
C          113.85750544805866        0.01587906033672        0.04715337520529
C          115.07456930425556        0.02059899441398        0.03252427824064
C          124.76685221291582        0.05821494850960       -0.06811742247071
C          125.98472574092150        0.05696660114935       -0.07722455191884
C          135.68327724461963        0.02481639403564       -0.08028645959632
C          136.90167796952761        0.01625534026716       -0.07178459611719
C          146.60576201272943        0.00373782230937       -0.04347454960011
C          147.82450344963522        0.00566759363275       -0.04599929942165
C          157.53224349917559        0.01139699726182       -0.05373032280797
C          158.75107371115516        0.00851072343536       -0.05501274186065
C          168.46079449700392        0.00898232961417       -0.06848442102021
C          169.67943726045780        0.00937450022855       -0.06064713296081
C          179.37787574838077        0.01657925520940        0.01864557811380
C          180.59448651179406        0.01757133690797        0.01717494793279
C          116.48303520132355        0.02574780988823        0.01756602116333
C          117.10668213165870        1.28272429528693        0.13180191070714
C          116.46035460186560        2.53166014529021        0.31832048282824
C          117.42358070175918        3.50245125068039        0.36454053304791
C          118.68749379823694        2.87362723674404        0.20037566217736
N          118.44603554517923        1.53154832035316        0.07683050339505
C          119.94335063012497        3.49249684941316        0.17179435701553
C          121.16988563345362        2.83589593729580        0.06137882977518
C          122.44395205163823        3.52172315754513       -0.05517740714582
C          123.38960055566638        2.56156573268207       -0.12161348813527
N          121.36152521490150        1.48775079543824        0.04115230080848
C          122.69295035128843        1.29308685402441       -0.04789133148923
C          123.35964189471406        0.05116241164802       -0.05573243750924
C          122.73669088795975       -1.21202659526564       -0.05009591747915
C          123.38392692932285       -2.47317371096843       -0.00063704651323
C          122.42034001167038       -3.44388247864399       -0.03816004506009
C          121.15483436859778       -2.80201812811062       -0.11632592045833
C          119.89842030568433       -3.41607783672893       -0.18693728392679
C          119.89277093868627       -4.89866418499101       -0.25593665298403
C          120.50920070075721       -5.56043092049233       -1.31888978405565
C          120.50029235644662       -6.94572545207214       -1.38220612580980
C          119.88244435902783       -7.68631188768359       -0.38368223075862
C          119.26984270024404       -7.03542849694223        0.67861342575866
C          119.27162739795095       -5.65024655622832        0.74257056228033
C          118.66979675529225       -2.75395534486357       -0.19823278266782
C          117.39183911684482       -3.42607473811079       -0.35042160152000
C          116.44575618795808       -2.46611216768193       -0.29137349631974
C          117.14623645218722       -1.21049039554492       -0.10933526264647
N          118.47979246085251       -1.41148412118242       -0.07485940537983
N          121.39619919601203       -1.45403509001354       -0.10534720586524
C          119.95216779378995        4.97324024048623        0.27229675250615
C          119.31592286293261        5.75574467246971       -0.69233297834757
C          119.32631332710375        7.13886036460847       -0.59145299109026
C          119.96552489676168        7.75658722041726        0.47491337034159
C          120.59924613549512        6.98502080329922        1.43951522488327
C          120.59610223548535        5.60205205619003        1.33901925635172
H          115.39500746658391        2.66274856870340        0.41644743710635
H          117.27393713848339        4.55968610775668        0.51075041971927
H          119.16496358006516        0.82360782095305       -0.02881027110853
H          122.57410395454983        4.59091489015831       -0.09884541892598
H          124.45639948763245        2.67647500912890       -0.22595187188237
H          124.45005933980136       -2.61429435610200        0.06731423407491
H          122.57131825003793       -4.51038837831384       -0.00257152097540
H          120.98063564718727       -4.98350510238494       -2.10685400735313
H          120.97706357912129       -7.44905297302257       -2.21603055131734
H          119.87814904751080       -8.76926035038768       -0.43353416985916
H          118.78850976894591       -7.60942004555463        1.46264715743916
H          118.80317897566218       -5.14349399215950        1.57887926494611
H          117.25920207153095       -4.48539589324002       -0.49932869553745
H          115.37623814000368       -2.57175683291051       -0.37528027677237
H          120.67610097477024       -0.73989414712609       -0.12882132949757
H          118.82758194362516        5.27595519212749       -1.53334709226872
H          118.83361444525676        7.73714252569920       -1.34989718287593
H          119.97010048794751        8.83780687994528        0.55384423969445
H          121.09783564005193        7.46240381873348        2.27581780049497
H          121.08130938016458        5.00016899539864        2.09930055118006
C          127.39177164070112        0.05783384891547       -0.08274907298219
C          128.02500533710912        1.23406616496793        0.36342490691815
C          127.39133119347220        2.39578565027984        0.87359387808840
C          128.36343515951413        3.31562825800178        1.15933560554475
C          129.62021179993937        2.74290667787825        0.82477455047215
N          129.36613818213286        1.47844235944297        0.36473944587522
C          130.88051990388439        3.34467117632006        0.92774830613548
C          132.10046986280099        2.72931619416231        0.64269177289873
C          133.37566518789376        3.42231095216046        0.66025306591781
C          134.31591624427344        2.49849373491875        0.37166902481179
N          132.28559639498775        1.41894478754584        0.32083828557034
C          133.61537928322070        1.24533427303556        0.17851346224903
C          134.27664946349083        0.02782271712496       -0.08454864857905
C          133.64124364291916       -1.20121522680581       -0.35140494387938
C          134.27219169063460       -2.45459633099557       -0.55498373132070
C          133.29982424933206       -3.37726010977186       -0.83061486985060
C          132.04508118768476       -2.71094060563998       -0.80736315144440
C          130.78610812411154       -3.26891223571274       -1.06285320029861
C          130.76788034157636       -4.69346149276311       -1.47716526813668
C          131.43369023986932       -5.10430965699388       -2.63306039346349
C          131.41261589511655       -6.43615967120807       -3.01866818319695
C          130.73294789231397       -7.37401277135135       -2.25328757691711
C          130.07049354627759       -6.97387244115945       -1.10069007441178
C          130.08446525215652       -5.64211475979418       -0.71481867700195
C          129.56531252709991       -2.60037573139950       -0.95986114841971
C          128.28908963698262       -3.18901268499072       -1.32292884815272
C          127.34890222708357       -2.26045599700010       -1.04962646364401
C          128.05130403309329       -1.10695927527742       -0.52504495398776
N          129.38114950412117       -1.32993210007264       -0.50537630896507
N          132.30046201888950       -1.40253460361638       -0.49415145395665
C          130.90441895025026        4.75646275152921        1.38368981123595
C          130.24830646065590        5.75141566695147        0.65754465532159
C          130.27627221623064        7.06875972456077        1.09009176135019
C          130.95306415689794        7.40768104471728        2.25387043763788
C          131.60627033247724        6.42332575056236        2.98314030447389
C          131.58553033761038        5.10608287801748        2.55087647438704
H          126.32831457978980        2.50435645081567        1.01314616893391
H          128.22380679372057        4.29997831684512        1.57533048784801
H          130.07847273621138        0.81679734644939        0.07506568597265
H          133.51000759931605        4.47523651104804        0.84809243181789
H          135.38113514510701        2.63273790017294        0.27713889665273
H          135.33356820837372       -2.62640768122612       -0.48625699050397
H          133.43791578959627       -4.42896443667206       -1.02119605228741
H          131.95332811368775       -4.37112961421572       -3.24002195284158
H          131.92836334092715       -6.74272194431161       -3.92195359423690
H          130.71930742273477       -8.41522608872910       -2.55487797320724
H          129.54054921871949       -7.70298774108051       -0.49784262315681
H          129.57702216735498       -5.33308911946312        0.19221029082944
H          128.15372299147512       -4.17121542773774       -1.74592160128075
H          126.28269122753211       -2.32176994388409       -1.19632724989413
H          131.58951189422120       -0.68783225677188       -0.38084535608378
H          129.73115465426497        5.49162813940708       -0.25952002659141
H          129.76814924104048        7.83461337964115        0.51461430069735
H          130.97192264575594        8.43761441836810        2.59173090371953
H          132.13420747253724        6.68221417196504        3.89425904165125
H          132.08617522874263        4.33619375470217        3.12737240162780
C          138.30811135627198        0.01618919854187       -0.06347313927601
C          138.94003052123338        1.13080238050046        0.52314610953922
C          138.30747755881708        2.22113105633088        1.17228612897483
C          139.27818125834895        3.10953382593009        1.54867704961339
C          140.53311126964297        2.58835057924952        1.13358268121906
N          140.28000806273113        1.38099330833015        0.53910840961370
C          141.78985628820215        3.19055274838993        1.27421318097664
C          143.00995065152864        2.61731399768331        0.91218342002013
C          144.27858873927545        3.32010378011727        0.96606989555594
C          145.22277647945833        2.43191203074996        0.59101979298079
N          143.20208957977931        1.33967127512218        0.48097369301104
C          144.53141842019349        1.19074986907290        0.30964703526312
C          145.19944619036838       -0.00017067279692       -0.04454297620781
C          144.56600963429221       -1.20797243022769       -0.40007266958440
C          145.19625160175255       -2.44437360370963       -0.69009593046058
C          144.22528524065027       -3.34013104951501       -1.04789451870053
C          142.97221101010166       -2.67293389974947       -0.99098445577789
C          141.71656342241627       -3.19990949183451       -1.31886469074348
C          141.70033833780425       -4.58300347363876       -1.85546500435323
C          142.39198611367644       -4.89908285640444       -3.02587847152203
C          142.37161091578457       -6.19278137363742       -3.52485849904434
C          141.66721625359389       -7.18691216038892       -2.85939944624922
C          140.97887185198203       -6.88126604035608       -1.69308997204989
C          140.99164685344201       -5.58756474941443       -1.19437741144688
C          140.49644907305998       -2.53586717697586       -1.18379632786766
C          139.22821075952467       -3.07736210498415       -1.63651535926942
C          138.28401090750111       -2.17718694287321       -1.29117654682694
C          138.97543608872186       -1.08937693811630       -0.63026399520296
N          140.30431131141228       -1.31753059452593       -0.60615886632080
N          143.22651563316614       -1.39413797430177       -0.57228288470200
C          141.80897734168505        4.55327747340411        1.86001738389591
C          141.11798871245171        5.60103126385434        1.24934996735472
C          141.14166351707854        6.87280060866478        1.80176186425680
C          141.84919086020713        7.11310262282134        2.97179499873817
C          142.53735185858477        6.07584615848263        3.58665249951996
C          142.52080733753209        4.80420298633910        3.03436902395964
H          137.24639699602315        2.30482064949771        1.33924888162361
H          139.13862690123210        4.03834943653212        2.07716727097932
H          140.99199540057671        0.76078003826742        0.16835914675491
H          144.40607878699294        4.35632363867923        1.23438295606292
H          146.28491461067361        2.58467476555846        0.49158267324862
H          146.25607010251932       -2.62464839681486       -0.62061414892471
H          144.36326300776292       -4.37465643481026       -1.31662496757169
H          142.93122399143951       -4.12119955191508       -3.55511841939057
H          142.90731204897531       -6.42523082362109       -4.43858678287983
H          141.65431367152561       -8.19833468898759       -3.24945416430756
H          140.42951401595209       -7.65481625020611       -1.16800480938243
H          140.46333543321145       -5.35275153662497       -0.27706932313559
H          139.10110571947962       -4.00940261215450       -2.16298776888778
H          137.22193034141176       -2.21703301817690       -1.47039169683929
H          142.51572273326394       -0.68816560280023       -0.41283795309053
H          140.57688569795943        5.41950669417809        0.32727598415096
H          140.60610656166091        7.68046535917610        1.31518081824349
H          141.86477467494043        8.10741838478064        3.40350362401378
H          143.08948356873407        6.25758088177054        4.50207972679711
H          143.04872624869736        3.99232719648067        3.52209279484621
C          149.23073769327880        0.00980536493598       -0.04663179809834
C          149.86482814952893        1.11526294734828        0.55562396022846
C          149.23608241404335        2.19387858787980        1.22713255359220
C          150.20736079261465        3.08266268263060        1.60141787164829
C          151.45904188371199        2.57258965108135        1.16389906361751
N          151.20392626709165        1.37087102972942        0.55897843573543
C          152.71441421555335        3.18011509482387        1.29499040219440
C          153.93366782761348        2.61429743844873        0.91939417129028
C          155.20041347563253        3.32088919608979        0.96913950419614
C          156.14541250302992        2.43684554496795        0.58648307156011
N          154.12742698849823        1.33915136629527        0.48137183541226
C          155.45628647092761        1.19474698011098        0.30355764144074
C          156.12600689735859        0.00623637206384       -0.05559081859564
C          155.49253254285711       -1.20005238208264       -0.41693203598758
C          156.12120065158845       -2.43569170844683       -0.71292786999885
C          155.14968934140967       -3.32728772197071       -1.07988605604215
C          153.89774398317823       -2.65816866529065       -1.02268037617583
C          152.64212711165777       -3.17875821028158       -1.36118778552470
C          152.62396376542134       -4.55645029435165       -1.91104572640965
C          153.32500689859552       -4.86670965808913       -3.07745007732803
C          153.30196286442600       -6.15605407989827       -3.58750629497856
C          152.58532773207168       -7.15166675789053       -2.93748491770657
C          151.88747908422982       -6.85189383517985       -1.77531290563326
C          151.90316252816629       -5.56262539662777       -1.26546475511274
C          151.42266812023234       -2.51421512664113       -1.22180896111406
C          150.15570833992618       -3.04673725737084       -1.68853093686809
C          149.21028295366969       -2.15464183901854       -1.32595679236336
C          149.89947277145026       -1.08057686885540       -0.64114700869393
N          151.22872566406073       -1.30727904656449       -0.62125216650125
N          154.15316039502707       -1.38280244707402       -0.59426627530306
C          152.73105539020273        4.54051090917701        1.88628185305994
C          152.02773141861351        5.58556141643126        1.28498192015559
C          152.04757949458340        6.85571430857683        1.84111289761886
C          152.76330871787528        7.09698345766119        3.00596918686148
C          153.46352601776175        6.06240128943409        3.61162322200276
C          153.45108637358493        4.79240470450501        3.05533145436866
H          148.17715974449467        2.27055326741508        1.40954156453035
H          150.07007786207939        4.00439318746893        2.14275939452548
H          151.91350078370127        0.75886743710437        0.17041184702437
H          155.32578289229130        4.35641520710162        1.24110128348081
H          157.20666807475143        2.59254465508141        0.48233374951602
H          157.18032352983042       -2.61892386052073       -0.64136218400906
H          155.28697691105100       -4.36028015433084       -1.35481324425916
H          153.87356454856757       -4.08759760665936       -3.59517690734256
H          153.84514789144657       -6.38400943478763       -4.49794405581159
H          152.57027173225944       -8.15962598532134       -3.33633392351179
H          151.32838363138904       -7.62648597753761       -1.26218216759243
H          151.36752813445955       -5.33253526155071       -0.35121176007216
H          150.03042407103786       -3.96710603821538       -2.23555226114012
H          148.14874029627998       -2.19107747629038       -1.50835058940191
H          153.44314298274463       -0.67723869007941       -0.42971821168849
H          151.47969706864944        5.40303072679267        0.36720035275973
H          151.50247538819943        7.66126963862891        1.36168579826883
H          152.77570957702892        8.08996082952451        3.44085249626178
H          154.02182264800342        6.24490547220458        4.52315029972125
H          153.98843315162128        3.98260487477349        3.53615393614407
C          160.15727458736882        0.01345768713472       -0.05785054751243
C          160.79290137170051        1.12479970222155        0.53191506131121
C          160.16657645317699        2.21174065720346        1.19221688770830
C          161.13942687687762        3.10393425874376        1.55396941023473
C          162.38973271778468        2.58812737384423        1.11894098700869
N          162.13223143273515        1.37949860123834        0.52898845818010
C          163.64498830636194        3.19857495094440        1.23616827768545
C          164.86334262833194        2.62913592894783        0.86267257607053
C          166.12904543413288        3.33855787061680        0.89358633473831
C          167.07369018323968        2.44944378770220        0.52163336562562
N          165.05697234907487        1.34715507411452        0.44548261175930
C          166.38544170638284        1.20138860406066        0.26451077710005
C          167.05423695643330        0.00624040395383       -0.07364754966354
C          166.41941906192332       -1.20529311208691       -0.41323825274951
C          167.04691935571384       -2.44654364874332       -0.68793152248644
C          166.07431120819376       -3.34383652942487       -1.03727565674230
C          164.82279491226367       -2.67276106410338       -0.99086527570498
C          163.56661838737367       -3.19829804178426       -1.31927927772398
C          163.54569334296914       -4.58644119179254       -1.84164219277976
C          164.24906916612994       -4.92317841467654       -2.99926032900421
C          164.22296999311453       -6.22270757377782       -3.48260302874254
C          163.50071124485333       -7.20217530619321       -2.81451292810336
C          162.80010143283047       -6.87597304666546       -1.66114705122549
C          162.81900407931980       -5.57656416181559       -1.17793585081475
C          162.34796057094920       -2.52933991953770       -1.19345661761744
C          161.08133527298239       -3.06680587266312       -1.65523189640534
C          160.13669490139065       -2.16707893340872       -1.30977098217423
C          160.82578458022709       -1.08443266488557       -0.63879683003685
N          162.15470059666049       -1.31273469982097       -0.61268414200652
N          165.07964652483903       -1.39020029949799       -0.58573220213407
C          163.66312163621501        4.56729721503812        1.80791574864469
C          162.95576692219689        5.60305526214104        1.19541898641717
C          162.97724575524580        6.88100100499254        1.73335269900306
C          163.69868297672011        7.13942640936813        2.89097422006465
C          164.40322637724609        6.11425210965841        3.50753172807700
C          164.38919522859445        4.83648453934413        2.96937619486343
H          159.10812264803263        2.29110078830530        1.37613810696193
H          161.00456825888341        4.03184573110720        2.08527622096550
H          162.84011653581894        0.76187937555734        0.14629234763085
H          166.25427025837126        4.37895570454953        1.14641250874361
H          168.13387521426552        2.60593795214447        0.40826044813171
H          168.10613976035211       -2.62869504590958       -0.61477796847844
H          166.21025067870539       -4.38174076206912       -1.29370084875461
H          164.80173306312173       -4.15682444211200       -3.53146438918171
H          164.76815927923491       -6.47134820770219       -4.38640348473837
H          163.48336754211655       -8.21809819605095       -3.19251547785683
H          162.23632395459396       -7.63771941221453       -1.13409166117997
H          162.28124475476943       -5.32571184808685       -0.27040696578769
H          160.95550032490439       -3.99525284377168       -2.18829482429817
H          159.07578756115961       -2.20421257708438       -1.49540751362662
H          164.37096335897795       -0.68055148071639       -0.43346240970294
H          162.40324711473798        5.40701544307642        0.28313066823066
H          162.42893968674647        7.67916978273133        1.24530480432953
H          163.71223027302048        8.13846152165310        3.31172323642400
H          164.96616979990083        6.31028175463164        4.41337591494498
H          164.93004466502202        4.03409810774589        3.45861776834035
C          171.08629057876186        0.01313944558868       -0.04759325459825
C          171.71240178092486        1.12876024431523        0.54346402056531
C          171.07196786001182        2.21761166356809        1.18762248443223
C          172.03683264615796        3.10746822159303        1.57408734398518
C          173.29717727696183        2.58813375072506        1.17266008585344
N          173.05182796191983        1.38220221796794        0.57163965574013
C          174.55156836729475        3.18487979856819        1.34937306310015
C          175.77878287261129        2.61134310826617        1.01204308253959
C          177.05408015395679        3.29254612431854        1.14666750750673
C          178.00124129348438        2.40856047594969        0.77038105580858
N          175.97025632464135        1.35167096725031        0.53403350316723
C          177.30371332307632        1.19385953566123        0.39829758490459
C          177.96787339214382        0.01408119998004        0.01284415486693
C          177.34490885469015       -1.18478366856136       -0.38032756352017
C          177.99035519919869       -2.39423633186193       -0.74581643891253
C          177.02645444665194       -3.28936378031369       -1.12262454530739
C          175.76362685240511       -2.64651157981400       -1.01087766071986
C          174.50988036899091       -3.17683723790509       -1.33920137975345
C          174.49917442983838       -4.54815735027953       -1.90661716341365
C          175.16847088671202       -4.83113793491676       -3.09807979334830
C          175.15370149009104       -6.11485357454890       -3.62271345377767
C          174.47655384089043       -7.13133567847474       -2.96285791868425
C          173.80929536154542       -6.85816154541398       -1.77640977808376
C          173.81709918877911       -5.57478760073790       -1.25158983737591
C          173.28589075236098       -2.52474940155456       -1.18190984107417
C          172.01925079911487       -3.06930862263614       -1.63541441379046
C          171.07178031276729       -2.17588515665698       -1.28223189032682
C          171.75897377478728       -1.08891424378467       -0.61549839337255
N          173.08872900546442       -1.31252123490599       -0.59292520755146
N          176.00540213036729       -1.38440723027549       -0.53894584532152
C          174.55661097270112        4.54059088182538        1.95293667005722
C          173.90151002859622        5.59924370512066        1.32200166102769
C          173.90899975170305        6.86548791045310        1.88742775327370
C          174.56388169788994        7.08886976110564        3.09095096637154
C          175.21495883193580        6.04024856540483        3.72652116297379
C          175.21470373061689        4.77400436913368        3.16142762690226
H          170.00952731393465        2.29912058091484        1.34559566151092
H          171.89023581617406        4.03591819230454        2.10131440631394
H          173.76853946876201        0.76528734760628        0.20453656942357
H          177.18437436469375        4.31156799639269        1.47309387817569
H          179.07050489238111        2.54266954975656        0.73877411917317
H          179.05640788927778       -2.55239454532479       -0.72217731127044
H          177.17524868544572       -4.30688134283991       -1.44520608129638
H          175.68589807979615       -4.03587574802463       -3.62323102684064
H          175.67245688954222       -6.32186169245500       -4.55220639138544
H          174.46817370336134       -8.13481549030145       -3.37303579904590
H          173.28044843935731       -7.64897697493595       -1.25600643398059
H          173.30509768271966       -5.36497638689213       -0.31909130201070
H          171.89509453171749       -3.99858637210034       -2.16742515480052
H          170.00983282504987       -2.21945972338567       -1.46041370729272
H          175.28781721548711       -0.69420625831840       -0.34422461097024
H          173.40059291636567        5.43002622337552        0.37519641047312
H          173.40188043678793        7.68178839376090        1.38502923750544
H          174.56692503498940        8.07880732004792        3.53288346361774
H          175.72513716512827        6.20878474148829        4.66842056176391
H          175.71301800154131        3.95332288135607        3.66524676515433
