191
 energy: -339.617442760732 gnorm: 0.000673242407 xtb: 6.5.1 (b24c23e)
Zn          29.42946781131600        0.00862816042252       -0.00260494529581
C           26.02020956459415        0.05376599613205       -0.08013114964197
C           26.65159189723311        1.28064573001402        0.08339635968436
C           25.97840300705143        2.53731681952081        0.25781862878427
C           26.93795671345999        3.48536734876262        0.39847956628808
C           28.21061088988480        2.81977453965908        0.30131009801594
N           28.00138239873522        1.48462457367529        0.11911688575281
C           29.46291779095162        3.43788238767501        0.41102133279476
C           29.47591046100959        4.90950407802455        0.58936026985394
C           30.03011077441884        5.48051167117274        1.73938431100125
C           30.03690709758447        6.85198536390541        1.90474312976378
C           29.49433404033365        7.68640240509098        0.92160217201100
C           29.51597706921585        9.14656631392653        1.11907572477974
O           29.98229040077226        9.68450548464642        2.09078687734803
C           28.94251391161364        7.11785258248402       -0.22911127879282
C           28.93153900438620        5.74405219126716       -0.39123340034381
C           30.70170123956815        2.78791096041566        0.36559318330993
C           31.98271780272364        3.43649374237859        0.42536028374683
C           32.92704556786700        2.46650818906503        0.32731075099958
N           30.89256810947488        1.44006372278790        0.21933612418547
C           32.23428090013458        1.21818300577842        0.19831456065260
C           32.86356967963415       -0.03529633070034        0.05745679449905
C           32.20792982582908       -1.27348876007855       -0.09752748742475
C           32.87387628175223       -2.53230838863645       -0.26103196469693
C           31.90892671712252       -3.47839207730208       -0.38825547159246
C           30.64216762220266       -2.80609011567715       -0.29658064474359
N           30.86188212586386       -1.46533096334991       -0.12728005081402
C           29.39012995945138       -3.42197466149173       -0.40510739064976
C           29.37211589644170       -4.89570687405296       -0.56679972342264
C           28.82745596354793       -5.47487109463415       -1.71654598559455
C           28.80715041441399       -6.84990303562017       -1.86748674917799
C           29.32583031599853       -7.67555336704550       -0.86690309653201
C           29.30864627350297       -9.14315994036817       -0.99967874398293
O           29.73631900484924       -9.89678372961007       -0.16275037865755
C           29.86993823542023       -7.09675999509559        0.28464554583179
C           29.89587423030077       -5.72339366867594        0.43126687012010
C           28.15143050560618       -2.76893376560616       -0.37122610776828
C           26.86501483909093       -3.41110384216845       -0.43887166867201
C           25.92584017794138       -2.43660578349854       -0.35099787233210
C           26.62550907715390       -1.18938016887352       -0.21834247103220
N           27.97054410629280       -1.42448293438034       -0.23125029260910
H           24.93472316361385        0.06635792674512       -0.08938092907214
H           24.90738177772593        2.66446400942012        0.27688615461077
H           26.80064632613889        4.54137951891776        0.56753857148563
H           30.43947492547907        4.83637045922079        2.50944659966887
H           30.45948086174730        7.30166035865246        2.79687058693244
H           29.06075121868968        9.72569596692025        0.28733209177114
H           28.52298775525928        7.75767824436378       -0.99875210776498
H           28.51439059525358        5.30694096500097       -1.29155864689576
H           32.13865113768770        4.49933637538491        0.51606094110405
H           33.99942349220125        2.57941001144290        0.33420405990250
H           33.94360819577894       -2.66670174431347       -0.28120657484491
H           32.04186503454957       -4.53675871187108       -0.54444096718215
H           28.43452968743558       -4.83652250753394       -2.49997724936108
H           28.38767812994071       -7.29032394890379       -2.76626151072123
H           28.86331834758419       -9.50981845216679       -1.94930895777665
H           30.26719913635318       -7.74544756305122        1.05797743240960
H           30.30671701956070       -5.27843559602430        1.33054962525092
H           26.70510882132170       -4.47364003784322       -0.52845934684112
H           24.85238734691518       -2.54186626740407       -0.36549669079742
Zn          61.53008649558537       -0.03589068672541       -0.02790420249133
C           64.93984925869906       -0.06769164577224       -0.07614144687286
C           64.30952284685965       -1.30578415216493       -0.09741512919814
C           64.98336551742150       -2.57410432066112       -0.09552802483140
C           64.02431621374188       -3.53302171869893       -0.10427413226337
C           62.75147497548881       -2.86102135129922       -0.12261388637087
N           62.95985385148726       -1.51345391484890       -0.10863504811855
C           61.49918588659324       -3.48887342186284       -0.12206293165718
C           61.48647265536285       -4.97076349622250       -0.15650381154222
C           60.91257314869456       -5.69931251181357        0.89029681886371
C           60.90592867809161       -7.08032225303460        0.85904162752883
C           61.46874687251271       -7.76678951466825       -0.22227374794339
C           61.44724398651988       -9.24024894899287       -0.23395990843493
O           60.96210434957437       -9.91037003254251        0.64163083328053
C           62.04010446303968       -7.04064320725508       -1.27024228629627
C           62.05050563735820       -5.65773336664679       -1.23555869155386
C           60.25974140519968       -2.83927424927375       -0.09041531629812
C           58.97947305270652       -3.48963770601796       -0.14610737762834
C           58.03440428156975       -2.51614518975384       -0.10850286524570
N           60.06791639858466       -1.48475262154606       -0.03564000125108
C           58.72612221691995       -1.26256038835512       -0.03874817075476
C           58.09570233913769       -0.00271510158133        0.01030873461563
C           58.75010667179826        1.24503807347291        0.04921401792829
C           58.08328231129732        2.51386792433885        0.06920858406862
C           59.04758555220388        3.46893257837216        0.08623208248226
C           60.31482290453986        2.79116135057916        0.08517381609433
N           60.09606783586150        1.43999083931445        0.05517227609210
C           61.56662292726231        3.41693023735361        0.07541624335128
C           61.58422608476288        4.89852923767331        0.12932576064404
C           62.13733027296709        5.63801147313682       -0.92009702618409
C           62.15878174001082        7.02037303096476       -0.86956566415639
C           61.63272737978552        7.69252493831867        0.23648808748457
C           61.65171992206238        9.16390958895262        0.31879366357329
O           61.21872771782711        9.78826535946776        1.25356174838194
C           61.07971942407331        6.95317474409178        1.28751973943296
C           61.05266241997914        5.57309199523170        1.23291155060239
C           62.80604234027312        2.76635493186316        0.02360180586899
C           64.09189927563339        3.41211196446513        0.06199283470426
C           65.03197771650160        2.43562131762269        0.01648092279585
C           64.33336587425970        1.18200737669072       -0.04006697825907
N           62.98807787683858        1.41591808791233       -0.03178422029811
H           66.02540257805393       -0.07802250198969       -0.07514788602980
H           66.05433621124673       -2.70222767296450       -0.08056692099996
H           64.16192199907896       -4.60225973666466       -0.08539534340955
H           60.48774316616534       -5.17098679866010        1.73639423744287
H           60.46826547573263       -7.65205857424028        1.67032683846484
H           61.92160126765346       -9.69581945875079       -1.12951651596979
H           62.47499084080292       -7.56482148378335       -2.11513722771489
H           62.48253378535306       -5.09730179727226       -2.05706854428853
H           58.82465019961697       -4.55397091049167       -0.21955036010566
H           56.96227058421606       -2.62901094918582       -0.13240150567783
H           57.01348103994048        2.64913148392453        0.06329539268191
H           58.91404650481275        4.53868769059221        0.08528917202614
H           62.53632465867304        5.11988970930968       -1.78496836400463
H           62.58510715313729        7.58615684193404       -1.69168448109059
H           62.10619772061931        9.66391911959161       -0.56317626427301
H           60.67656285335149        7.48308204527714        2.14386090033982
H           60.63507451503219        5.00276676466035        2.05500467467194
H           64.25066234813272        4.47645473093407        0.12950349978518
H           66.10533797523817        2.54222847418294        0.02797436695878
C           38.06585424027282       -0.06511419195228        0.05862935021417
C           36.83732311351715       -0.06407483124094        0.06204883838666
C           35.49302936107847       -0.05754082808650        0.06280949861377
C           34.26895253220444       -0.04972223851626        0.06140094242881
C           39.41001830986232       -0.06198587655220        0.05410871033963
C           40.63427462026253       -0.05949862503678        0.04682475937800
C           54.12174032777310        0.01781759745282        0.00971650500674
C           52.89330848009304        0.01603042683115        0.00798558556073
C           51.54906681778564        0.01244720175194        0.00652283131849
C           50.32485111136241        0.00642994242195        0.00318844913345
C           55.46611937460904        0.01461728106269        0.01006987972711
C           56.69019458016852        0.00908243031528        0.01067656261616
Zn          45.47926562560409       -0.02395661044801        0.01582566564826
C           42.03902546235280       -0.04991684895884        0.03802017307311
C           42.67636640196699        1.15878398915073        0.38531325993109
C           41.99191690836244        2.37466636501802        0.71164819705351
C           42.94275665858864        3.30177262807840        0.99388134682765
C           44.21786421406119        2.65625137857661        0.85140277295771
N           44.01912212588433        1.35636009859812        0.47070502114159
C           45.46130585381552        3.26882140224167        1.04476981081598
C           45.45423982326344        4.68451187696283        1.48656999041033
C           46.01999618454167        5.67972005824874        0.68354050760891
C           46.01106642621851        6.99828838196513        1.09546236429541
C           45.44205893854058        7.35255310991438        2.32338199685987
C           45.44781622745820        8.76597844470451        2.74167340687507
O           45.91835235489411        9.65732790529166        2.08215882501458
C           44.87922532109197        6.35900035735106        3.12817611445126
C           44.88272212853667        5.03964420284352        2.71168267287594
C           46.71146772962523        2.66751303390329        0.85934015556846
C           47.97949702641299        3.29230980136736        1.11407031358980
C           48.94049754942763        2.37815770427134        0.82451562058418
N           46.92446390575074        1.38337339119887        0.43564729321151
C           48.26948255698677        1.18547542240337        0.39946243000849
C           48.91996312903905       -0.00114195709717        0.00466422012037
C           48.28238554233326       -1.19550233826183       -0.38847730940322
C           48.96622305214086       -2.37716564270164       -0.82318489982344
C           48.01542460316760       -3.30324852143762       -1.10920216060273
C           46.74110875431971       -2.69745450789914       -0.84089593123796
N           46.94002063871633       -1.41202955727705       -0.41413127257671
C           45.49766424670177       -3.31619006081177       -1.01513282310608
C           45.50566580544113       -4.73069080109366       -1.46014190675684
C           46.10002552895253       -5.71711628796688       -0.66789848867477
C           46.10657320562115       -7.03800053828770       -1.07919306456835
C           45.52326613203930       -7.39911901677106       -2.29620266824142
C           45.52000224309571       -8.79859938530136       -2.75868842328051
O           45.03188585825890       -9.15880864897697       -3.79939079936968
C           44.93094626781517       -6.41203197285888       -3.09110571778044
C           44.91957946756079       -5.09427578351726       -2.67662265523743
C           44.24762980937702       -2.72193320757722       -0.80714410715767
C           42.98040989328998       -3.38580916939767       -0.93578298625339
C           42.01959718012392       -2.47358759671297       -0.63939845982984
C           42.68998119067236       -1.24845486161356       -0.31859173298913
N           44.03444733085141       -1.42608385854972       -0.42039219857167
H           40.92072580091598        2.49832741792270        0.71483297310384
H           42.79490727144530        4.33537185938385        1.26225706734235
H           46.45141058604199        5.41021507744028       -0.27392122745047
H           46.44220323164990        7.77675316439147        0.47515996572268
H           44.97770944811209        8.95063838222577        3.73122658526687
H           44.43936419071510        6.62412324714341        4.08417518189533
H           44.45567666175402        4.26933979025356        3.34403967582972
H           48.11611896011227        4.29710730764510        1.47990595163895
H           50.01030232188788        2.49216338249283        0.89683325143448
H           50.03682062951366       -2.47638521857096       -0.90533163644465
H           48.16335824573061       -4.30397703288269       -1.48182480137926
H           46.54276431553089       -5.44209207540860        0.28285888314750
H           46.56480811423279       -7.79779600520761       -0.45437011671508
H           46.01152411930126       -9.51030143221603       -2.06146457995316
H           44.48393358427943       -6.70070912468762       -4.03636692453806
H           44.47059661090996       -4.32998987191604       -3.30093535066622
H           42.84419133700388       -4.42059702655941       -1.20555565136976
H           40.95037706512981       -2.61298951183117       -0.63009933948777
