166
 energy: -296.105211004669 gnorm: 0.000416925716 xtb: 6.5.1 (b24c23e)
Zn          16.49739843505343       -0.01749514329144       -0.01558593554908
C           13.07075979309785       -0.05659993036153       -0.05659980915847
C           13.71506869928822       -0.92633939508532       -0.92971747012090
C           13.06336138208396       -1.83133427562071       -1.83864142471513
C           14.03913219880873       -2.49676768235485       -2.50617050638690
C           15.29797688293001       -2.00597970985451       -2.01281994457190
N           15.06652783047011       -1.05758000499748       -1.06078964835358
C           16.55250922170352       -2.43017950009136       -2.43816462190826
C           17.78578254222711       -1.97912767552717       -1.98460283114094
C           19.06213239264193       -2.44439501799556       -2.45129562338974
C           20.01067990315451       -1.75938463185319       -1.76282268492669
N           17.98198200289750       -1.02318793350160       -1.02442869885900
C           19.32243202673601       -0.86986931170381       -0.86988455381134
C           19.94926932280113        0.02204339945234        0.02539103139110
C           19.28169063301088        0.89915581924158        0.90528145824446
C           19.92792516431450        1.80423981436831        1.81373677583643
C           18.94772237805701        2.46726695501747        2.47913133725240
C           17.69376844961053        1.97265422089910        1.98269458048724
N           17.93467330878533        1.02148954166767        1.02799280852972
C           16.43990984655857        2.39495294123700        2.40676743128503
C           15.20580598422911        1.94216268517179        1.95204960767870
C           13.92463317146853        2.40358208673510        2.41542424903003
C           12.98049215579756        1.71644040855012        1.72479491402036
C           13.67414759916171        0.82720638770719        0.83152318804771
N           15.01874073422991        0.98927296980436        0.99472310964905
H           11.98532299779280       -0.06893558590785       -0.06956673166020
H           11.99429276381613       -1.93396645533449       -1.94221556860673
H           13.93058512455987       -3.25437771976242       -3.26671745658230
H           16.57053925518355       -3.19619637377391       -3.20739397912107
H           19.20253362849046       -3.19906213519933       -3.20930870038781
H           21.08302897531619       -1.84129711574736       -1.84459928529346
H           20.99594626548260        1.91063381973504        1.92059011220014
H           19.05267060249000        3.22514299976006        3.23970019204029
H           16.42200150431339        3.16099520507731        3.17599253920427
H           13.78053254094169        3.15787124626805        3.17336150658046
H           11.90718637419270        1.79444161340234        1.80294632519552
Zn          72.44486977544240        0.00040793418792       -0.00858447930825
C           75.87132658823785        0.06075650095549       -0.01020609969706
C           75.22568834815876        1.29092608753280       -0.07104748016136
C           75.87599017384737        2.57274531937291       -0.13423421757103
C           74.89920686057694        3.51311635279412       -0.17973741897196
C           73.64107777199659        2.81671866513685       -0.14490956762083
N           73.87403057206151        1.47475348188041       -0.07958256542900
C           72.38590370936687        3.41536897291373       -0.17277296297781
C           71.15333346524477        2.77501470396647       -0.14110173662370
C           69.87620636654066        3.43192013859206       -0.17209672309704
C           68.92871171112925        2.46082486500442       -0.12625046473027
N           70.95867731629079        1.42154998827228       -0.07673466201135
C           69.61829896010116        1.20251041445194       -0.06680654623862
C           68.99325817621239       -0.06050184331763       -0.01044757292731
C           69.66199199122862       -1.30061891809293        0.04809130059964
C           69.01711015316498       -2.58232044860117        0.10839648336823
C           69.99826179327296       -3.51935488381251        0.15656780052735
C           71.25151562708125       -2.81790261451541        0.12569255554088
N           71.00929095507308       -1.47221891821676        0.05974852876120
C           72.50600070620654       -3.41427319585515        0.15770462301939
C           73.73933857722369       -2.77185673243920        0.12831144247327
C           75.02124742674619       -3.42352554488875        0.16183852900955
C           75.96431057888023       -2.44941996182328        0.11446158619833
C           75.26927699759511       -1.19130028975682        0.05164616923134
N           73.92494043595921       -1.42253925874820        0.06201860182959
H           76.95674423410694        0.07977670041111       -0.01094966414195
H           76.94490274868492        2.71951060006475       -0.14202695685659
H           75.00662150577611        4.58544341048564       -0.23234623587572
H           72.36661133659662        4.49967058352220       -0.22506863719192
H           69.73469500477962        4.50020983877345       -0.22272159645533
H           67.85622451972861        2.57521566094468       -0.13185597937791
H           67.94925736835907       -2.73421872935993        0.11321475084072
H           69.89444213386093       -4.59190808636009        0.20856555214668
H           72.52504719761751       -4.49854352921856        0.21091575075481
H           75.16648928222054       -4.49137031296092        0.21476238037653
H           77.03773562352100       -2.55849777593005        0.12076801276887
C           21.35335929255035        0.03565310552735        0.03958444855971
C           22.57817964167732        0.04026233621268        0.04448772734115
C           23.92037340979064        0.04142644811651        0.04585922194337
C           25.15121307770400        0.03526659536686        0.04003692371916
C           26.48855877014606        0.02777977629649        0.03209889464429
C           27.71941283496050        0.01800921684809        0.02080826107004
C           29.06129527651333        0.00808933877814        0.00881959213619
C           30.28619488004003       -0.00284201785297       -0.00149502368554
C           40.00459467188946       -0.05905700637596       -0.04033662230540
C           41.22952507807948       -0.05938992558048       -0.03740303297954
C           42.57117159930882       -0.05374184191220       -0.03209315833583
C           43.80205051895906       -0.04239932997130       -0.02420855529430
C           45.13900273001099       -0.03158436971779       -0.01731722452879
C           46.36990704821488       -0.02143091012904       -0.01067832638367
C           47.71156192848765       -0.01465928562779       -0.00870236007998
C           48.93655830742691       -0.00855967389826       -0.01072378607923
C           58.65522976340402       -0.06572334786946       -0.03324302290406
C           59.87995021502297       -0.07657053921281       -0.03323648322618
C           61.22233600188788       -0.08688723922332       -0.03196315609567
C           62.45301303794805       -0.09591943193335       -0.02935365401247
C           63.79084428592370       -0.10063563366143       -0.02591019758046
C           65.02148396638889       -0.10133763522224       -0.02133022909516
C           66.36409494433322       -0.09378316958083       -0.01731982949602
C           67.58865169692824       -0.08290308760665       -0.01321343985133
Zn          35.14565437134254       -0.03021257609415       -0.02544800562872
C           31.68973205001106       -0.01028948809485       -0.01038322471519
C           32.34727153503877        0.92217375925371        0.81939203514601
C           31.68988065937060        1.87618150536374        1.66680160738726
C           32.66207616949175        2.58479160363503        2.29671722258907
C           33.92083408753128        2.06848083439946        1.83894389611153
N           33.69272460387234        1.05971242292541        0.94236976265890
C           35.17010920138574        2.52242945696349        2.24408057261970
C           36.41041426531392        2.05314443237127        1.82953910173511
C           37.67899632669038        2.55393667856423        2.27753918926553
C           38.63745735055333        1.83365889413909        1.63994801247460
N           36.61920880068379        1.04162607611822        0.93125126399013
C           37.96175646279118        0.88779243169098        0.79775424836860
C           38.60128539398985       -0.05270600051012       -0.03710744008962
C           37.94439323051999       -0.98414676640275       -0.86832029363610
C           38.60185290565400       -1.93747441031473       -1.71642040925895
C           37.62964144900067       -2.64386943799023       -2.34883531084030
C           36.37072838376947       -2.12719829804450       -1.89150094092350
N           36.59897593348928       -1.12011282679272       -0.99298508477606
C           35.12139234134341       -2.57964512806544       -2.29786431064256
C           33.88083323489252       -2.11115597945655       -1.88236199330150
C           32.61229087572505       -2.61193574540194       -2.33046946791323
C           31.65364560277160       -1.89383816686697       -1.69054964463186
C           32.32908956283919       -0.94895182412633       -0.84718088772942
N           33.67185548322107       -1.10151142381324       -0.98212528872823
H           30.62067345717577        1.98233042895800        1.76038608520386
H           32.54803529729880        3.38686455770123        3.00904405082903
H           35.17790229740853        3.33412920608490        2.96526998219767
H           37.80844422458900        3.35439031795345        2.98905091465542
H           39.70858493116011        1.92672469253879        1.72525691867954
H           39.67111613767403       -2.04439438432283       -1.80891202552303
H           37.74379167326485       -3.44470766926654       -3.06255425306542
H           35.11353715875817       -3.39002598682118       -3.02056230641799
H           32.48298191137301       -3.41101276191761       -3.04357295553869
H           30.58249347636936       -1.98745735314044       -1.77507184559841
Zn          53.79539687391527       -0.02951883490869       -0.02818082777208
C           50.33988512655848       -0.01155963867901       -0.01620785335691
C           50.99559671835232        0.92217804493336        0.81326607606365
C           50.33685801002775        1.87618137111793        1.65970706554937
C           51.30811969678095        2.58636161162557        2.28923636408832
C           52.56774739034488        2.07101315059036        1.83222573200934
N           52.34081252239245        1.06111919899267        0.93653959244928
C           53.81643703608816        2.52656942560449        2.23691154674557
C           55.05754382324873        2.05751195358168        1.82356230847390
C           56.32549172756391        2.55953332102439        2.27211651751705
C           57.28498220620638        1.83814524239012        1.63730727571374
N           55.26765786411769        1.04466619575744        0.92740154596295
C           56.61073556918208        0.89038980549503        0.79608126576434
C           57.25112206829395       -0.05371926315530       -0.03339378783775
C           56.59524524919718       -0.98732892612301       -0.86263525342919
C           57.25381609501925       -1.94307456139893       -1.70723121866460
C           56.28253172719178       -2.64901578830283       -2.34146973569695
C           55.02307351559732       -2.13006166881563       -1.88842237669476
N           55.24981807185552       -1.12199137559569       -0.99093237196443
C           53.77436150037799       -2.58196656117183       -2.29779284951088
C           52.53347364183456       -2.11260371640458       -1.88520129527868
C           51.26545671603418       -2.61357378313625       -2.33473240462627
C           50.30611926387748       -1.89542542156155       -1.69610515378754
C           50.98066089601867       -0.95013665479651       -0.85226463773707
N           52.32337116831734       -1.10238441221513       -0.98569335526376
H           49.26744392463480        1.98103543971911        1.75280296708133
H           51.19305162142388        3.38887059660477        3.00092224923245
H           53.82337791702208        3.33920630599086        2.95706706281830
H           56.45382927746333        3.36129589378379        2.98236939486687
H           58.35599655127185        1.93132310228038        1.72396301402790
H           58.32315480846643       -2.05151870199288       -1.79671417345087
H           56.39757707622613       -3.45099731165656       -3.05374537400583
H           53.76769528820264       -3.39292956108041       -3.01982331852620
H           51.13696829844526       -3.41290674309439       -3.04768262495411
H           49.23510284996879       -1.98933286997802       -1.78189070040321
