175
 energy: -300.558768272828 gnorm: 0.000610012070 xtb: 6.5.1 (b24c23e)
Ni          28.86473001644953       -0.01423005638982        0.00090559526169
C           25.46900140022955       -0.04105598225600        0.01513046333417
C           26.12430687506278       -1.24541461828458       -0.13296223030847
C           25.44616101310058       -2.49842311646747       -0.26630248558127
C           26.40339164590192       -3.45343606383519       -0.32105212091687
C           27.66645544040722       -2.78156717751356       -0.22818219019195
N           27.48493987174489       -1.42501167469812       -0.12120234395260
C           28.88716324493147       -3.44099734112738       -0.17889702060230
C           30.09811847896603       -2.77404358451995       -0.05880104784111
C           31.36643336557187       -3.43717343560798       -0.02825708706329
C           32.31265878990831       -2.46985263592868        0.02635769413921
N           30.26748696240846       -1.40779475850051       -0.02263550619930
C           31.62147732814218       -1.21999632602348        0.01942031927690
C           32.28064278970091        0.01176216785081        0.00019880768721
C           31.60220600368148        1.23291372016393       -0.02386013914750
C           32.27192839466408        2.49301174454076       -0.08110791381252
C           31.31054136933136        3.44602552579236       -0.03675910853732
C           30.05587260529470        2.76345011736603        0.05848305734557
C           28.83518543002254        3.41353009446215        0.17564484211719
C           28.82491886285774        4.89499750233220        0.25429075016945
C           28.20738950374276        5.65206566852841       -0.74175883791706
C           28.20356312734643        7.03696119477051       -0.66763543976941
C           28.81041686039094        7.68063129942987        0.40225899459725
C           29.42409282654320        6.93368851552426        1.39863140269249
C           29.43452746373345        5.54885126879862        1.32562190186929
C           27.62471402010316        2.73490834700450        0.22397767994209
C           26.35518955352062        3.38158449445151        0.38321138717021
C           25.41226655854552        2.41203555579451        0.33250090489896
C           26.10674330348434        1.17378143798199        0.15386492183877
N           27.46353557112865        1.37642193212661        0.11077050952893
N           30.24621549274732        1.39978990195362        0.03701505208993
C           28.89810731402810       -4.92365746945003       -0.25332440128464
C           28.49363338620424       -5.57546375994725       -1.41833247508831
C           28.50927978091611       -6.96068938791479       -1.48656060771539
C           28.92329697158923       -7.70894104881885       -0.39302121798487
C           29.32439393002097       -7.06663470440234        0.77048135209579
C           29.31465371794540       -5.68156645338531        0.84122486626308
H           24.38529573058631       -0.05047167434495        0.02769217992125
H           24.37432146708375       -2.61221469600280       -0.30106679782224
H           26.27911662393666       -4.52093905948518       -0.40346366242813
H           31.50493730130879       -4.50547732387395       -0.05848911552967
H           33.38496422634005       -2.57653246176160        0.05742261273322
H           33.34076884063764        2.61585680445248       -0.14956308809405
H           31.42941807637163        4.51657459196548       -0.07138931784766
H           27.74324052081339        5.15073315097444       -1.58380092798631
H           27.72543731095081        7.61615335671999       -1.44982414429159
H           28.80531073831325        8.76322389446658        0.45941381102741
H           29.89715203679170        7.43168811134542        2.23774003454497
H           29.90507743684189        4.96596474644319        2.10960210140176
H           26.21767878075636        4.44172637560504        0.52106040616496
H           24.34073069449862        2.50582122850270        0.40998728279637
H           28.18017485013350       -4.99146927494179       -2.27650116101084
H           28.19752489716188       -7.45788454405089       -2.39842365373468
H           28.93372925583319       -8.79163004056959       -0.44759102133677
H           29.64615947536313       -7.64679935233832        1.62823441337277
H           29.61854794932837       -5.18067351567453        1.75364057808590
Ni          55.74822504633814        0.05441031378939        0.02768735903224
C           59.14412225841711        0.07509913585925        0.04050678698356
C           58.49067988797354        1.28564225976035       -0.05693329744718
C           59.17051710841051        2.54197505820047       -0.14157602188288
C           58.21453530203357        3.49963681347221       -0.16031208136048
C           56.95064544190292        2.82639511148432       -0.09206637006198
N           57.13031549157120        1.46648739302975       -0.03779962522524
C           55.73136274565955        3.48539039275348       -0.01249815565924
C           54.51985042521747        2.81643372983859        0.08862954258119
C           53.25312832999874        3.47990739495073        0.15531981850653
C           52.30527164578358        2.51281501201124        0.17372579988348
N           54.34799061768796        1.45014389395145        0.06846012288237
C           52.99385504196962        1.26317420406396        0.10853771396626
C           52.33209969668749        0.03477393948864        0.03573795434177
C           53.00806104812989       -1.18544905090924       -0.04354838843588
C           52.33569988914125       -2.44062883255457       -0.15398703220529
C           53.29547070615239       -3.39628734919192       -0.15764258057005
C           54.55191141219342       -2.72080769481939       -0.03834530186096
C           55.77203195367355       -3.37746729681259        0.04111910995337
C           55.78069671157189       -4.86115130474965        0.04570585683203
C           56.38822872504919       -5.56698578993409       -0.99306978827172
C           56.39110170412221       -6.95387381208448       -0.98968773826573
C           55.79288837613827       -7.65062817745484        0.05152432617381
C           55.18977612950223       -6.95469578474814        1.09033930616080
C           55.17995150553375       -5.56791843045271        1.08805172683220
C           56.98384625168276       -2.70392296257068        0.11780916021032
C           58.25238970893011       -3.35978891022161        0.24369112529327
C           59.19683321579647       -2.39040001292117        0.24120504645224
C           58.50435790476500       -1.14374699012298        0.12340483842946
N           57.14719032978162       -1.34186276220539        0.07091828941520
N           54.36398646635057       -1.35727053640781        0.00410728296898
C           55.72319327840135        4.96987772724599       -0.03347057923128
C           56.11746688605266        5.66064401238472       -1.17937351873306
C           56.10429043685215        7.04739400539248       -1.19974684384082
C           55.70325962093982        7.75824221127990       -0.07680089810333
C           55.31269196272959        7.07696702380360        1.06796493795939
C           55.31973931647509        5.69021381092361        1.09084763158863
H           60.22783022204369        0.08223783569356        0.05398941295638
H           60.24250618066346        2.65555997642138       -0.17219383061773
H           58.33996839210459        4.56936342688958       -0.20241550425423
H           53.11677319491216        4.54877845456607        0.17266417678946
H           51.23339187981051        2.61991537572972        0.21599560892546
H           51.26627857728570       -2.55855062385535       -0.22204542864461
H           53.17441321416121       -4.46402191193874       -0.23950991594199
H           56.84529730956167       -5.02368951490148       -1.81265081476394
H           56.86160217569466       -7.49288909181508       -1.80454394957782
H           55.79654392342787       -8.73471995315667        0.05345904121024
H           54.72310858829158       -7.49437923834047        1.90706297323708
H           54.71822785517315       -5.02520724483006        1.90530466633524
H           58.38808321399418       -4.42575361636540        0.32815922115433
H           60.26824032751372       -2.48961054692396        0.31351770352315
H           56.42122290433110        5.10580610650484       -2.06008505659816
H           56.40776554396469        7.57509540913986       -2.09714461338200
H           55.69468384923341        8.84218628472418       -0.09396087240050
H           55.00131623932648        7.62789485979397        1.94852813892852
H           55.02398109378841        5.15877298996144        1.98853224337285
C           34.90767306257884        0.03033530077389        0.00856623249352
C           33.68619213691632        0.02250709376011        0.00151939353176
C           36.25780757096722        0.03490453088009        0.01410891455537
C           37.47937303745558        0.03508533579075        0.02196275776462
C           48.35489261391653        0.01558769848121        0.02983101288835
C           47.13330133960668        0.01766463240978        0.02508792673340
C           49.70505477119958        0.02008440479936        0.02980261128086
C           50.92650932715692        0.02734527347962        0.03281126477360
Ni          42.30628630928822        0.02674547283090        0.02622105242692
C           38.88442039606917        0.03338536684742        0.02628728101152
C           39.55223839837464       -1.19259694735900        0.08834722969554
C           38.87125070698554       -2.44441851265523        0.17876241303020
C           39.82424894245909       -3.40702150811843        0.15910885359589
C           41.08414752383449       -2.73794646387790        0.04838106473397
N           40.90652841846117       -1.37271125853381        0.02976254576186
C           42.29935697374601       -3.40115680500480       -0.04544312035660
C           43.51748103537479       -2.73988663446899       -0.11073314620327
C           44.77467047058931       -3.40885445669691       -0.24919043898727
C           45.73154585830899       -2.45008863513235       -0.22901615423069
N           43.70063053872300       -1.37733778490361       -0.03514548212340
C           45.05559041559568       -1.20031223661716       -0.08700051385213
C           45.72822221949680        0.01956408933893        0.02410898452923
C           45.06035784811787        1.24211155957210        0.13487800595545
C           45.74167756547830        2.48926296998048        0.27432891219648
C           44.78881103361051        3.45194275875192        0.29495052194434
C           43.52862401423638        2.78800226724507        0.15957082528690
C           42.31318239914589        3.45443973244149        0.09665690851791
C           42.31663139376325        4.93834417128269        0.12643820767087
C           41.73992534748191        5.62431218822679        1.19550465187969
C           41.74792394748913        7.01089091797388        1.22312893440398
C           42.32416732797761        7.72652160870884        0.18245122409478
C           42.89654102078149        7.05018697578959       -0.88625809022097
C           42.89701691124456        5.66360382606728       -0.91434230959083
C           41.09492495173269        2.79631054082291        0.00669912707944
C           39.83747856401255        3.47033050979331       -0.10162862557808
C           38.88075199040451        2.51142782624863       -0.12117582283259
C           39.55703262170243        1.25687034485119       -0.03306551689708
N           40.91200509862291        1.43176520659330        0.02515979158326
N           43.70604155624959        1.42462125281206        0.08503462531507
C           42.29550089834822       -4.88503095388340       -0.07870552341119
C           41.71282383835972       -5.56484414468803       -1.14853919120891
C           41.71270680288147       -6.95135843290622       -1.17987188014864
C           42.28688376502969       -7.67305089264164       -0.14218509231818
C           42.86540031117772       -7.00282470708620        0.92713140194880
C           42.87388601707533       -5.61631596112803        0.95897486294756
H           37.80129585792142       -2.55593425369588        0.24904163447894
H           39.69666324284238       -4.47546882341374        0.21887073080207
H           44.89792882469343       -4.47445172510951       -0.35304692096490
H           46.80106728567696       -2.56272763815687       -0.30390333802182
H           46.81178201462142        2.59772685578130        0.34686453025132
H           44.91666720386997        4.51711110837746        0.39741486876207
H           41.29775197534008        5.06564186943708        2.01287604367092
H           41.30251122488038        7.53478710326151        2.06156970614446
H           42.32721309356470        8.81040731876435        0.20429260824648
H           43.34491464535297        7.60490358120755       -1.70301426338723
H           43.33629920879963        5.13583472963201       -1.75351863882100
H           39.71394164086905        4.53933455369628       -0.16012419876629
H           37.81111247825291        2.62697541572874       -0.18964292754542
H           41.27221756534730       -5.00142435191016       -1.96350892919419
H           41.26264699937255       -7.47038976400249       -2.01886833319420
H           42.28344223183129       -8.75688058977897       -0.16678355039996
H           43.31205239096379       -7.56231612793634        1.74158471251602
H           43.31770607558300       -5.09334971679821        1.79878305996939
