237
 energy: -374.952343580243 gnorm: 0.000570301537 xtb: 6.5.1 (b24c23e)
Ni          27.86343600877339        0.01569386118682       -0.02493195157327
C           24.46182161556183        0.10186684005001       -0.07312887412658
C           25.13031134110405        1.18930362005208        0.44954238118976
C           24.46858731000015        2.34405819673397        0.97715360755805
C           25.43898436202366        3.20511366912777        1.36325077916547
C           26.69213897570800        2.57545908706528        1.06722425997247
N           26.49353460179030        1.33355091643471        0.51790215262745
C           27.92113021254719        3.17872533318264        1.28585367770027
C           27.94824805277545        4.55382003298806        1.86025289683088
C           27.87269806810632        5.66504505253213        1.01557778045470
C           27.76223080069715        5.47199969997188       -0.47340237032416
C           27.90016032530990        6.94213715853105        1.56351583258038
C           28.00021694164735        7.12822038938499        2.93847754403607
C           28.05016295155222        8.51613503464683        3.51790259065633
C           28.07480496176968        6.01490900855255        3.76919562274006
C           28.04956603350666        4.72852473052363        3.24343499194246
C           28.13018149660881        3.52832758385648        4.14867911897406
C           29.12623496970868        2.56159785748948        0.99127221180713
C           30.39860097074128        3.18327171694578        1.19914314422223
C           31.33845351897162        2.27888757000472        0.83388789115902
N           29.28471521195907        1.28795972558512        0.49256450710282
C           30.63781363337134        1.10929605115843        0.40592354889223
C           31.28556341429406       -0.05691561567253       -0.01104970895613
C           30.59231224129896       -1.19809333051581       -0.42374684027821
C           31.24599361775867       -2.40147094133703       -0.83179496740782
C           30.27116832666513       -3.27209524875659       -1.18740224716998
C           29.02471033154113       -2.59424787239155       -0.99855288965026
N           29.23342007144985       -1.32156675560038       -0.51594954831224
C           27.79735171865534       -3.15979043976013       -1.30474713710945
C           27.76983607835400       -4.54196664139930       -1.86192097167317
C           27.89782548032823       -4.73947342600679       -3.24049038750179
C           28.06121413818893       -3.55667131038016       -4.15743357104911
C           27.87319983035512       -6.03168735585680       -3.74969023722478
C           27.72401330669786       -7.13000600297961       -2.90741236072385
C           27.69153469341212       -8.52030180897553       -3.48246178657315
C           27.59629267314745       -6.92139736501020       -1.53905496907336
C           27.61771273744635       -5.63664469891579       -1.00703189646750
C           27.48047897050990       -5.41941672311671        0.47638578750407
C           26.59452185152720       -2.49451694663363       -1.12321379068553
C           25.31987766779408       -3.06266850007008       -1.45034878730896
C           24.38436240572041       -2.14666040916727       -1.10696474169628
C           25.08871556157473       -1.02157591971331       -0.57053477509065
N           26.44405163183572       -1.23710061918387       -0.59442031793770
H           23.37855053343419        0.13035230432232       -0.09054971707619
H           23.39800295393991        2.46082416143451        1.03455345000554
H           25.33616429414932        4.18212328124963        1.80740177726775
H           26.84445846698713        4.93381611309723       -0.71824623956038
H           28.60310119776441        4.88249865270254       -0.84331287393153
H           27.75238105287705        6.43102585193828       -0.99047119721747
H           27.84140056822543        7.80489401070532        0.90800133181981
H           27.63200249321811        8.53232635102179        4.52464675021595
H           29.08643092101286        8.85751285791425        3.57518067428023
H           27.49635469127753        9.21798729552078        2.89390510715417
H           28.15232317353599        6.15055775997654        4.84299981178538
H           29.02721072606069        2.94691147272452        3.92689234125157
H           28.16093767973699        3.83118489556914        5.19485096159622
H           27.26610945484315        2.87901901744648        3.99638179791931
H           30.53713104276045        4.18339337898789        1.57670476859080
H           32.41187548005839        2.37743223396826        0.84977294074764
H           32.31452486579413       -2.54437110704524       -0.83968783067894
H           30.36983403325811       -4.28306492774538       -1.54823912852780
H           27.22476046785562       -2.86560321618461       -4.03831956189770
H           28.10740136331477       -3.87482056855566       -5.19849055978826
H           28.97800411977585       -3.01499498862587       -3.91682484365024
H           27.97289417499504       -6.18637363575810       -4.81911345546406
H           28.52718276813083       -8.67043277365429       -4.16769813743761
H           27.74519397774152       -9.27105486235545       -2.69419736288700
H           26.76633088699424       -8.67303884371818       -4.04223617316909
H           27.47962454714527       -7.77092745643807       -0.87411459843579
H           26.58729241401640       -4.82969533281016        0.69160259768305
H           28.34245327367094       -4.87133478486818        0.86118201015269
H           27.40591465735422       -6.36999113539154        1.00367168313049
H           25.17982929642444       -4.03894031036624       -1.88587229240806
H           23.31146474627243       -2.20836203137769       -1.19735214382826
Ni          65.04570992332803       -0.01000581981364       -0.06116260139440
C           68.44721947149387       -0.04923160292421       -0.14367662914033
C           67.77656545668285       -1.19687877219710       -0.51223613734767
C           68.43564232009132       -2.40192109630279       -0.91620893366942
C           67.46340293863133       -3.28869221741542       -1.23337596296153
C           66.21178094633534       -2.62114264188750       -1.02750323669448
N           66.41307116556683       -1.34276047847443       -0.57066370507587
C           64.98236843250174       -3.19910187449301       -1.30450813681566
C           64.95352190913997       -4.59030686620508       -1.83860171987118
C           65.04513725395309       -4.81196496357347       -3.21570740557737
C           65.17403139091111       -3.64534138341969       -4.15852246957123
C           65.01736472164325       -6.11423275531668       -3.70083034182243
C           64.90154956243849       -7.19723805135066       -2.83551166929546
C           64.85218915550200       -8.60143837885102       -3.37433603910905
C           64.81112520983594       -6.96442438992607       -1.46700446592650
C           64.83623885658064       -5.67075465264930       -0.95947915010487
C           64.73911047389655       -5.42628680869163        0.52281675062204
C           63.77931770078853       -2.53876284750670       -1.11303348450817
C           62.50702301641240       -3.11843796484689       -1.41930997226209
C           61.56881665261982       -2.20597180757324       -1.07010926351060
N           63.62259981778904       -1.27493934029748       -0.58943562436141
C           62.27021462527415       -1.07492367220986       -0.54967724296012
C           61.62370555605488        0.05204006284188       -0.03423894055668
C           62.31861884277146        1.14797704416474        0.48476384843887
C           61.66691143094921        2.29326898485794        1.03748586544421
C           62.64338167642867        3.15973887626657        1.39880214160329
C           63.88894956343570        2.54090755167356        1.06049400438237
N           63.67799791307591        1.29553793497520        0.51220029740507
C           65.11725395778396        3.15853372982062        1.23354099707533
C           65.14693328409862        4.53827430628950        1.79654514547275
C           65.01606458641174        5.64005070809214        0.94516091085554
C           64.84904354074344        5.42999565239623       -0.53621550575742
C           65.04160603256081        6.92198663851643        1.47965694253533
C           65.19457797416563        7.12361753798684        2.84855549010719
C           65.22732306107031        8.52179989285908        3.40410072811127
C           65.32594841680748        6.02100873129899        3.68477979923261
C           65.30373383830431        4.72852834975190        3.17185149032277
C           65.44488383981978        3.53955290818406        4.08452573411120
C           66.31876281687731        2.55453014264192        0.89598896763816
C           67.59422324891150        3.18989522477837        1.05110860339136
C           68.52816543628128        2.29146712099549        0.66022812004385
C           67.82214194654189        1.10900993926649        0.26902400726537
N           66.46716743906774        1.28243828279171        0.40303830005934
H           69.53052099942776       -0.06049560649908       -0.17381373263035
H           69.50587919855620       -2.53134545412221       -0.94660188964322
H           67.56411126095588       -4.30450219242158       -1.58033422158249
H           66.09167810087855       -3.09123678988161       -3.95162440469335
H           64.33457416387671       -2.95942642316169       -4.03113966645528
H           65.19662723840426       -3.98273412235118       -5.19430535366786
H           65.08873637849030       -6.28653414952896       -4.76980976323111
H           65.26502025853074       -9.30860237311872       -2.65449369134632
H           63.81655106740639       -8.88628794477094       -3.57429042659378
H           65.41123942437164       -8.67976136039448       -4.30706600529411
H           64.72144735252280       -7.80327551366765       -0.78454280130417
H           63.84358959995779       -4.84563958803211        0.75252525244065
H           64.69461460165169       -6.36716292573159        1.07046103589080
H           65.60331728757797       -4.85783340386879        0.87131239322372
H           62.36743616465004       -4.09857409596128       -1.84576444140693
H           60.49590217281553       -2.27838870136053       -1.14635617087158
H           60.59841604481748        2.40417656836741        1.12842865574234
H           62.54636135548745        4.13346375959032        1.85095547858268
H           65.68563322031333        4.85296053846953       -0.93442993707295
H           64.79964361965921        6.38343912217878       -1.06124223593488
H           63.93285325519349        4.87197886374979       -0.73865559611950
H           64.93948536925464        7.77771260088849        0.82023753178825
H           64.39293481137899        9.10748856553533        3.01534514194918
H           65.17173226357885        8.51169952430290        4.49252781866437
H           66.15353790579007        9.02037265821762        3.11042724287992
H           65.44601518905887        6.16762831183150        4.75321290092399
H           66.33617297211961        2.96566830416281        3.82351597627027
H           64.58177245984726        2.87897934349444        3.98371863083253
H           65.52533554451408        3.85456901352379        5.12446805558342
H           67.73591361798283        4.19490598040974        1.41479052071317
H           69.60108587619573        2.39784724662933        0.63547628180662
C           32.69038955900164       -0.08223748540253       -0.01145885141566
C           33.91434544948703       -0.09652975926368       -0.01287117798963
C           35.25773283346399       -0.10786550891904       -0.01238231534190
C           36.48799388829467       -0.11292383198372       -0.01142315737822
C           37.82659143186571       -0.11456304186854       -0.01118474861386
C           39.05691661834204       -0.10981998004898       -0.01081853798268
C           40.40014523147731       -0.10515324947136       -0.01040485138514
C           41.62435111772267       -0.09819749083685       -0.01174446852443
C           51.28467779032658        0.07281245377582       -0.02347113040443
C           52.50878582078236        0.08908545683642       -0.02747118473785
C           53.85207802500491        0.10323157196758       -0.02916970884899
C           55.08236280398054        0.10879009115642       -0.03686198603412
C           56.42107132949287        0.10968005074562       -0.03585249779117
C           57.65131847027510        0.10666280066727       -0.03642848452238
C           58.99479984827304        0.09293217901519       -0.03445054268459
C           60.21879141385338        0.07958064553378       -0.03137337414495
Ni          46.45477384089553       -0.03595111953357       -0.01399026632851
C           43.02871036110851       -0.08698237836555       -0.01126083819488
C           43.69850786227324        0.15697304206868        1.19131950369459
C           43.02114848542814        0.39469015200295        2.42649628195019
C           43.97814884490050        0.51086140748588        3.37850789195535
C           45.23676615117670        0.34504218329163        2.71866125938989
N           45.05438880683717        0.14597541763051        1.36876342472422
C           46.45215829443246        0.34198178985897        3.38460195604591
C           46.44940585777245        0.50451169033265        4.86622346149762
C           46.58233834501218        1.77764322962347        5.42777285255402
C           46.72895710229042        2.98158240904855        4.53590249054123
C           46.57436626995637        1.91800500263968        6.81067176509791
C           46.43575763444965        0.81066530470417        7.64087640727875
C           46.44770814074975        0.97169418969128        9.13698764163579
C           46.30551683907434       -0.45161660150088        7.07052817762979
C           46.30983053178059       -0.61593069656115        5.69047492718783
C           46.16479442763784       -1.98475551810658        5.08082518553835
C           47.66914505647015        0.20057218092308        2.73699148650921
C           48.92757197909603        0.19680930512389        3.41767788476379
C           49.88618750621850        0.11882707489906        2.46334417925998
N           47.85350516429875        0.10428373926565        1.37602739844195
C           49.20989033405037        0.07250070699120        1.20575794968859
C           49.88042545735441        0.04395072794878       -0.02066990144311
C           49.20697471819443       -0.01978622852557       -1.24414930082563
C           49.87986957348995       -0.04312659338303       -2.50419432316299
C           48.92280727988641       -0.17915690654480       -3.45354192951069
C           47.66870406981491       -0.23886966474474       -2.76749126207535
N           47.85311117474905       -0.12020568417232       -1.40836885963276
C           46.45743248953009       -0.44237616181502       -3.40940057895445
C           46.45891951818824       -0.62051731790763       -4.88920685640194
C           46.26413443395560        0.48336422197304       -5.72454941387937
C           46.05493863982529        1.85009586306877       -5.12895977430871
C           46.26648838334017        0.30498426210210       -7.10292962012063
C           46.45775080064370       -0.95504256954959       -7.66065021550947
C           46.47726700415252       -1.13145550716372       -9.15494471074348
C           46.65123614635390       -2.04586377767047       -6.81943387372355
C           46.65377045436381       -1.89122994511647       -5.43810369804015
C           46.86085447980832       -3.07725426073807       -4.53429180095924
C           45.24459334021059       -0.48476959485178       -2.74024139777743
C           43.99070436457308       -0.69785578668765       -3.39555719875191
C           43.03159831703571       -0.59373958765251       -2.44421025002161
C           43.70328774396459       -0.32120594883348       -1.21315157227769
N           45.05803728371841       -0.27436909326262       -1.39258544298298
H           41.95028468616930        0.45537202167163        2.53485889259436
H           43.85911605507935        0.68966523156325        4.43482288296658
H           47.63266542518364        2.89588156879643        3.92948853570916
H           46.78932826026842        3.89661624580058        5.12426719286218
H           45.87765177840515        3.05668699861668        3.85682112106440
H           46.67548791997121        2.90657224826114        7.24649354999524
H           47.46451470173388        0.84539609180451        9.51615886247648
H           45.81391129020225        0.22291178005575        9.61287776760303
H           46.09905280882757        1.96382866395032        9.42438012317100
H           46.19665099857955       -1.32101072273913        7.71065172016699
H           45.26524315314220       -2.03101915384468        4.46399499072399
H           47.02008187456097       -2.20766707974144        4.44033352849144
H           46.09719789896535       -2.74972723249388        5.85371355788663
H           49.04528107288611        0.25160390782687        4.48778536190867
H           50.95739501015204        0.09744435535135        2.58274392954024
H           50.94813998719571        0.03125504480606       -2.62847835018970
H           49.03904577923241       -0.23827584151867       -4.52356728950807
H           45.15625122212772        1.85984492826959       -4.50931643383298
H           45.94814736338732        2.60249275269261       -5.90971736686805
H           46.90059422600868        2.12083595322412       -4.49414473946586
H           46.11503624032547        1.16162121788237       -7.75153854173245
H           46.14554964360258       -2.13216511967802       -9.43267935751433
H           47.49338545471166       -0.99356975867732       -9.53195995401919
H           45.83337238123319       -0.39812882216587       -9.64109571617307
H           46.80062659803688       -3.03255747990880       -7.24553912715363
H           46.97095690676925       -3.99337656623949       -5.11362781228943
H           46.01272312892149       -3.19052927052426       -3.85658798463372
H           47.75700602683089       -2.93841953863059       -3.92659071196415
H           43.87582895401094       -0.89604321965936       -4.44887582950738
H           41.96278939805784       -0.68679292383698       -2.55003399652055
