248
 energy: -432.610678813365 gnorm: 0.000774176616 xtb: 6.5.1 (b24c23e)
C           29.87027066922338       -0.07771901700771       -0.00822284175617
C           30.50096851176312       -1.31381345911540       -0.07109634418547
C           29.89266630503646       -2.60019553803041       -0.13939714352561
C           30.88883583759403       -3.53449656847937       -0.18576949896891
C           32.13681016664629       -2.84868417424489       -0.14716035236531
N           31.85184217764737       -1.51561656941093       -0.07857220979115
C           33.40835632528572       -3.40968643667972       -0.17293149532089
C           34.62337466511604       -2.74132811822141       -0.13509751208922
C           35.90698488021130       -3.41964864072886       -0.16671782796897
C           36.84893910180991       -2.45524909717367       -0.11515015870375
N           34.80591868951651       -1.39431411936232       -0.06547578993910
C           36.13668533578517       -1.19141065408941       -0.05221126208749
C           36.78312920583492        0.06087903597444        0.01162353448651
C           36.12752252865614        1.30495569273670        0.07390608238160
C           36.73096865602373        2.58994115083580        0.14014155299531
C           35.73122511166198        3.52208712315672        0.18628833950642
C           34.48724063856276        2.83219487039751        0.14937991999375
N           34.77932105909959        1.49654780074478        0.08189120756052
C           33.21674672167850        3.39325507462009        0.17597323535626
C           32.00079022405212        2.72192103959008        0.13970315658935
C           30.71111061968834        3.39425520947221        0.17201718294816
C           29.77486721033195        2.42559284391907        0.12075828038138
C           30.49348385609845        1.16280978768850        0.05708456389252
N           31.83012121266941        1.38082367356602        0.07063311081022
H           28.78548927059603       -0.09130669954469       -0.01103909569886
H           28.82819170705351       -2.77274838433896       -0.15080783230262
H           30.78294347731347       -4.60630359352426       -0.24183006932432
H           32.54354973088927       -0.77464632008693       -0.03847969590148
H           33.44576558355683       -4.49289964459792       -0.22900949210998
H           36.03613133972345       -4.48922808888339       -0.22118164339030
H           37.92243039325519       -2.55820976246719       -0.11774772297762
H           37.79476213919450        2.76556524109467        0.15073109455679
H           35.83452913808541        4.59407604009812        0.24104630925689
H           34.09007919544948        0.75294138838610        0.04294102108083
H           33.18017899087637        4.47647440256839        0.23109585897505
H           30.57706771021601        4.46340141711266        0.22662672225891
H           28.70026666146924        2.52141613637356        0.12387498098765
C          117.44309389662617        0.07569745592753       -0.01424826714644
C          116.81268633259626        1.29358677429182       -0.23558911658560
C          117.42130241589093        2.56095032435457       -0.46549587597874
C          116.42536011231630        3.48170807940012       -0.63199281188028
C          115.17721113252894        2.80620615673658       -0.50910849918835
N          115.46185744345667        1.49263700596890       -0.27141545767089
C          113.90580585614055        3.35931617454589       -0.60813730514559
C          112.69061932470305        2.70095044378621       -0.48852897762365
C          111.40714567091663        3.36969878611966       -0.60794144704608
C          110.46498100075317        2.41942114512849       -0.43673861454762
N          112.50779384551905        1.37347857416541       -0.24985640481813
C          111.17696795087602        1.17370030627514       -0.21353862067264
C          110.53029786017498       -0.06069940198733        0.00603938928049
C          111.18559602548241       -1.28703114280998        0.22518478540735
C          110.58182451078434       -2.55345389499793        0.45185190709478
C          111.58133187040136       -3.47185690566686        0.61921786669377
C          112.82549358799385       -2.79177769318004        0.49929502605125
N          112.53375554539312       -1.47566946076004        0.26149658326454
C          114.09583544551236       -3.34432703019166        0.60200244569296
C          115.31194668348327       -2.68262901921339        0.48457191925797
C          116.60147656012819       -3.34483937271373        0.60680072956779
C          117.53793441704278       -2.39044988498545        0.43454268674400
C          116.81959727937833       -1.14644889395858        0.20751679921444
N          115.48291092394980       -1.36134518369769        0.24495555160808
H          118.52788094960957        0.08902602639275       -0.01620657474088
H          118.48582298527052        2.73076969210097       -0.49663793857225
H          116.53150720341462        4.53775228008028       -0.82338111964804
H          114.76996521271546        0.76269275959357       -0.13886358766070
H          113.86866802268285        4.42675077527174       -0.80074496932592
H          111.27822518012704        4.42382913318513       -0.79725962067182
H          109.39150726373454        2.52107349824676       -0.45452455901198
H          109.51798355101045       -2.72668676415860        0.48105381253442
H          111.47776597373766       -4.52825174473804        0.80931509801871
H          113.22320271547794       -0.74272813524713        0.13118452125410
H          114.13214037705757       -4.41160091368141        0.79524792920478
H          116.73528999142962       -4.39811192812604        0.79846840970206
H          118.61251386445728       -2.48474139604469        0.45313839589107
C           41.98270827188296        0.09220253768620        0.00513416044912
C           40.75407215731153        0.09570399560815        0.00879353109623
C           39.41066491304910        0.09272547854001        0.01026225393681
C           38.18660603199632        0.08013495288969        0.01198407664226
C           43.32591925889190        0.08630211312563        0.00165568392334
C           44.55018248117023        0.07534515871924       -0.00196187160326
C           58.12602403236382       -0.00768840957788        0.00419300707016
C           56.89715797449335       -0.01621149392578       -0.00084129417151
C           55.55427022620232       -0.01836166119902        0.00088419172437
C           54.32979982239532       -0.01870170692403        0.00145459679522
C           59.46890509689192        0.00004888911790        0.00931643225414
C           60.69336941542466        0.00694290264610        0.01317635389995
C           74.27132667536715       -0.00081684060267       -0.01819940738399
C           73.04241826625496       -0.00554589233473       -0.02219344791061
C           71.69954199029802       -0.01003871587669       -0.02313512029104
C           70.47503916990816       -0.01207129743579       -0.02191061299254
C           75.61418810128336        0.00470622478530       -0.01325815413816
C           76.83865992829924        0.00721011587986       -0.00718227116667
C           90.41641028219853        0.01339576629267       -0.01616469116726
C           89.18750494792459        0.00848863632238       -0.01219450806467
C           87.84466093836126        0.00088067141794       -0.00596821143198
C           86.62023069923042       -0.00361775828970        0.00151687106790
C           91.75927505298228        0.01600417660293       -0.01758693420322
C           92.98370919579072        0.01477622211169       -0.01667017093399
C          106.55926751341731       -0.09513592528195        0.01216499132334
C          105.33063086914783       -0.09254711001681        0.01253666515720
C          103.98736732218785       -0.08761793216300        0.01278050590153
C          102.76312607737158       -0.07678317222719        0.01266454206260
C          107.90271287923949       -0.09078442756158        0.01035341547700
C          109.12678004041003       -0.07971142677313        0.00855437020116
C           45.95277941349513        0.06518606021850       -0.00400521741762
C           46.60176923159408        1.31512333179846       -0.01827599275945
C           45.99497239887056        2.59881850090703       -0.03254279015968
C           46.99351190861778        3.53467347720864       -0.04455938440129
C           48.23762376180382        2.84669299281093       -0.03785018328052
N           47.94960051553923        1.50942401800975       -0.02193341392214
C           49.50703127983564        3.41485701527475       -0.04569370990027
C           50.73014474932620        2.76280938630477       -0.03853469643320
C           52.00364618859678        3.46040458136641       -0.04705656755052
C           52.95973220211695        2.50855545506995       -0.03512683678595
N           50.93237059317072        1.41668929647702       -0.02233483861319
C           52.26596569440476        1.23363503945729       -0.01972405876641
C           52.92751306982927       -0.01232757855216       -0.00379260403123
C           52.27893190711932       -1.26246014898889        0.01084380383984
C           52.88552977787884       -2.54633158880838        0.02725710336070
C           51.88682896870083       -3.48195322008796        0.03746348392666
C           50.64262661351216       -2.79384003277868        0.02787956478673
N           50.93113030872867       -1.45651578444825        0.01185260974535
C           49.37333852903983       -3.36182263889217        0.03347198358856
C           48.14980274458132       -2.70987403057036        0.02518033116632
C           46.87632762688343       -3.40754848954606        0.03257322868353
C           45.92010490017837       -2.45573979913027        0.02211128129021
C           46.61367561851949       -1.18080525621100        0.00835255863587
N           47.94763050389038       -1.36399089286279        0.01023710717697
H           44.93085897380756        2.77242443882192       -0.03354420731015
H           46.88783067239923        4.60773252739502       -0.05699465446842
H           48.63809947902889        0.76411148454495       -0.01399932691313
H           49.53261340380475        4.49999332139963       -0.05858501526992
H           52.11693929210339        4.53307708234617       -0.06021174037355
H           54.03163938240416        2.62685619228939       -0.03651462537197
H           53.94961882200226       -2.72006769177445        0.03043362928177
H           51.99225541532093       -4.55503289522795        0.05064702120780
H           50.24287557637667       -0.71100709060706        0.00227875765540
H           49.34773814436110       -4.44697490236217        0.04614604679413
H           46.76303569806930       -4.48024481701762        0.04428818451995
H           44.84819021873564       -2.57396962916253        0.02324288837961
C           62.09566894777552        0.00960108595095        0.01005879943302
C           62.73495501152761        1.26459741226722       -0.00585677063669
C           62.11881167715453        2.54387068220915       -0.01755914324244
C           63.11056131926234        3.48690696781021       -0.03025432899903
C           64.35974146921259        2.80798895834349       -0.02697122041146
N           64.08130977827551        1.46862417587993       -0.01176882396113
C           65.62476158187494        3.38572396094667       -0.03844789944515
C           66.85327358640221        2.74361848242754       -0.03784689064215
C           68.12106125917435        3.45146569172458       -0.05250556071143
C           69.08491550787053        2.50736496892445       -0.04747681253384
N           67.06649477957485        1.39923913296414       -0.02428332880192
C           68.40161546693896        1.22692473487476       -0.02941669201563
C           69.07272996407468       -0.01386864575415       -0.01765605394599
C           68.43337475137103       -1.26881528631524        0.00105221314110
C           69.04961683722374       -2.54805475669862        0.01468028083636
C           68.05798067522508       -3.49107830211542        0.03299498330660
C           66.80875804203606       -2.81223732425345        0.03083220252726
N           67.08709199173695       -1.47285554848985        0.01096620578388
C           65.54379893578388       -3.38983620270811        0.04580644628219
C           64.31530207635983       -2.74761405962991        0.04239716896815
C           63.04756877634794       -3.45551424011836        0.05726581331381
C           62.08365984239928       -2.51151313254654        0.04632271248833
C           62.76689023398425       -1.23109604617405        0.02544734720223
N           64.10208675678365       -1.40335925033423        0.02368759141747
H           61.05347375048991        2.70979505320139       -0.01618038036182
H           62.99717213160478        4.55919535355766       -0.04111501845239
H           64.77505821710297        0.72817015357311       -0.00597702355880
H           65.64173478628629        4.47105825565836       -0.04996499582015
H           68.22565425109417        4.52502766898832       -0.06491960170518
H           70.15582358004444        2.63422522624038       -0.05492336504052
H           70.11494458149654       -2.71396116678408        0.01083105129613
H           68.17150818347439       -4.56331509211200        0.04682133381400
H           66.39334502932375       -0.73240200129273        0.00522491882832
H           65.52664940007581       -4.47511204801473        0.06137347921758
H           62.94310003062001       -4.52903539283895        0.07350448456455
H           61.01275616226001       -2.63847383453177        0.05173386629325
C           78.24095575138642        0.01024308599478       -0.00074046183225
C           78.87922033928746        1.26582007888820       -0.01351906142686
C           78.26183855718489        2.54447404240070       -0.03013932697301
C           79.25264750151504        3.48852001110886       -0.03695892557301
C           80.50248666511007        2.81090949568991       -0.02516222585955
N           80.22533348689326        1.47120847561095       -0.01107666719191
C           81.76696333984270        3.38976343733934       -0.02835173912957
C           82.99601980693298        2.74864681408646       -0.02028269603558
C           84.26319116044630        3.45767353659628       -0.02776456616352
C           85.22787244322019        2.51442496293637       -0.01943518001315
N           83.21034068952572        1.40450544074452       -0.00669170567214
C           84.54568101826914        1.23335392847976       -0.00606804017157
C           85.21791861528108       -0.00682266716897        0.00621916331199
C           84.57971495884385       -1.26235064708427        0.02366260782301
C           85.19700267932119       -2.54101524070604        0.04046164503481
C           84.20609959919297       -3.48490397524184        0.05526788079452
C           82.95631670019844       -2.80714187472889        0.04733702964982
N           83.23354347544046       -1.46757218208339        0.02849567869375
C           81.69180349510953       -3.38602319273758        0.05544879621008
C           80.46274085715928       -2.74506965469787        0.04464672240670
C           79.19553517796491       -3.45407160590184        0.05151331088057
C           78.23088245338128       -2.51091828104561        0.03477988100541
C           78.91312121977198       -1.22988677565138        0.01849861551569
N           80.24839900257743       -1.40094698781107        0.02490558165872
H           77.19635137892855        2.70931444302555       -0.03577167579461
H           79.13816025196027        4.56067175424440       -0.04935132798998
H           80.91975904606430        0.73144572213679       -0.00040305254116
H           81.78317370881388        4.47510425157995       -0.03980781899772
H           84.36678118393415        4.53135238868149       -0.03831270847100
H           86.29868343689868        2.64226451890137       -0.02134926659604
H           86.26248762230543       -2.70599765610157        0.04128818234980
H           84.32046106419358       -4.55704138579608        0.07013474379963
H           82.53911995695960       -0.72779091910952        0.01905101982558
H           81.67577304217909       -4.47132228682324        0.07081685102272
H           79.09185039314660       -4.52768523225311        0.06674565243121
H           77.16006670908678       -2.63876959036569        0.03350127898391
C           94.38603561672481        0.00796672067968       -0.01451370753109
C           95.03433516527981        1.25824400452424       -0.02950919348689
C           94.42731291946441        2.54187434726339       -0.04906173026137
C           95.42568820703906        3.47784799759176       -0.05785043330081
C           96.67009920734991        2.79019455842596       -0.04391972018202
N           96.38205710833286        1.45277792354613       -0.02715059064254
C           97.93918225798970        3.35860905724942       -0.04713637998411
C           99.16285473490385        2.70698522492515       -0.03489702794222
C          100.43616965129998        3.40494992350439       -0.04178212350963
C          101.39258525481080        2.45339903433681       -0.02710218989749
N           99.36528390255866        1.36120886855085       -0.01576802318141
C          100.69928122004984        1.17834906782117       -0.01050567030344
C          101.36047804085270       -0.06733228647534        0.01104158908940
C          100.71190242838000       -1.31736431106908        0.03151116007877
C          101.31907060651400       -2.60075420677517        0.05547191254325
C          100.32081347990838       -3.53690752869811        0.06759011436904
C           99.07649282495794       -2.84944688433582        0.05100370635544
N           99.36412318798178       -1.51216112042223        0.03004360502198
C           97.80725339884656       -3.41804907673639        0.05358569217851
C           96.58397772308047       -2.76646733963279        0.03633541822361
C           95.31064796359982       -3.46443043127880        0.03966698009925
C           94.35434436205470       -2.51290572129182        0.02044758122062
C           95.04780179393461       -1.23781466586046        0.00548945855748
N           96.38142795165216       -1.42047321153926        0.01496051267492
H           93.36317650331006        2.71523163816083       -0.05554928990172
H           95.31991186000283        4.55087157685928       -0.07269549227137
H           97.07055110381567        0.70754315033564       -0.01424356024400
H           97.96449017134042        4.44374407325601       -0.06149474229798
H          100.54922196873720        4.47763802011886       -0.05609581922938
H          102.46447039448692        2.57188703387735       -0.02651978990730
H          102.38323300844438       -2.77394863634827        0.06229904818584
H          100.42681543915182       -4.60985045342551        0.08609639699399
H           98.67538059796060       -0.76719402563911        0.01460252491621
H           97.78196311225528       -4.50313208129670        0.07080694718349
H           95.19760975092433       -4.53710501705747        0.05476746730079
H           93.28247767393084       -2.63150954472650        0.01617925775681
