458
 energy: -881.513839269895 gnorm: 0.000480857076 xtb: 6.5.1 (b24c23e)
C           86.68413848664267       -0.09913501459904       -0.06133336351580
C           87.29669778293309       -1.30801124705160        0.24176378868671
C           86.64907758157847       -2.54864166564599        0.50112545886564
C           87.61291075132702       -3.47822919662047        0.77126979001684
C           88.88048135032308       -2.83222449147380        0.69564875985380
N           88.63953176605285       -1.53028827663536        0.36311695250930
C           90.14599758679059       -3.39847795350819        0.89009149826417
C           90.18137795251864       -4.83005057583156        1.26923301680652
C           90.83181646602478       -5.75996822729235        0.45200894213970
C           90.86348547896191       -7.09869043764424        0.79688207581923
C           90.24293955827436       -7.51188598245867        1.97247311766808
N           90.27319163831044       -8.91648672435427        2.33969656981042
O           90.85746570698061       -9.67213285079453        1.60620425507998
O           89.71068287022143       -9.23970941053167        3.35439317871923
C           89.59274145117752       -6.60225707110946        2.80157634118613
C           89.56256180224058       -5.26644895569195        2.44483428741178
C           91.36080726098668       -2.72105105328035        0.75262542767830
C           92.65753406548716       -3.31623563506484        1.02359109004618
C           93.57572261858519       -2.35981534479699        0.77566300959661
N           91.51207743689780       -1.42308609553065        0.37280043444380
C           92.83857899436775       -1.18027820624569        0.36488671505483
C           93.47347562260727        0.02503318556333        0.00244173696792
C           92.83446351556672        1.22665931727623       -0.35821641649966
C           93.47599461876409        2.43459662296844       -0.73979516026438
C           92.50711397295346        3.36727400576645       -0.98637396891550
C           91.24273809350764        2.75768777750908       -0.75433226063056
N           91.49217472928396        1.46238776741290       -0.38736793557193
C           89.97756748668725        3.33869738926832       -0.90084375137928
C           89.94144960750957        4.77135633096297       -1.27208370644554
C           89.30773774869014        5.18137392313266       -2.44962621237344
C           89.27111212768958        6.51848843577659       -2.80007915613938
C           89.86963184672170        7.45664223884585       -1.96364856764523
N           89.83259154697269        8.86220074622115       -2.32553645135760
O           89.26817601895873        9.16059525844114       -3.34677251004698
O           90.36979201126911        9.64355341495497       -1.58274830102694
C           90.50384831661968        7.07027306197717       -0.78620559622244
C           90.53923240929848        5.73009203806648       -0.44756725503202
C           88.76099129714031        2.66972071898546       -0.72318518538908
C           87.45387641580571        3.30127736432472       -0.82712571222224
C           86.54369536171711        2.33459548564465       -0.59606647661899
C           87.29309601081927        1.11752904225783       -0.33685966751537
N           88.62529197923800        1.35986365081641       -0.41152941883622
H           85.59915532459702       -0.11599720969364       -0.07915510641062
H           85.58167911481792       -2.69843690780032        0.47489209117037
H           87.46479506092817       -4.52238471269188        0.99393417039146
H           89.36229321234973       -0.83212054612081        0.22381897447644
H           91.29952214629098       -5.42765513461046       -0.46735864890076
H           91.35926926426379       -7.82720831554317        0.16670083243136
H           89.12212258503476       -6.94838836168910        3.71393806932261
H           89.07186843031714       -4.54683603501319        3.08983104156594
H           92.82124195373817       -4.32334633648061        1.37099813698940
H           94.64861338105418       -2.41850855738343        0.86354590163067
H           94.54345909613639        2.56271063253541       -0.81795462369745
H           92.65293614269456        4.38411587112235       -1.31227539130322
H           90.77138635779369        0.78011221046571       -0.17598535295987
H           88.85787619307325        4.44032329519411       -3.09991004939483
H           88.78788134502454        6.84438288253970       -3.71329962324342
H           90.95774290533335        7.82023434007584       -0.14963880496004
H           91.01660759210527        5.41924667924612        0.47447175700031
H           87.28070533426711        4.34497138485026       -1.03401781770221
H           85.46775922645328        2.40862997613426       -0.58486366005295
C          189.72347718485258        0.04232949936169       -0.07654660867570
C          189.11259614268249        1.23287026148080       -0.44792050748345
C          189.76241816146941        2.42871281154373       -0.86451255108769
C          188.79963979397857        3.36198138972106       -1.12550680647729
C          187.53043061587755        2.76870256754592       -0.86682038145851
N          187.76959146975952        1.48406493761617       -0.47161392312882
C          186.26535588590966        3.35089924464113       -1.01009912312215
C          186.23257335400251        4.77063505458860       -1.43202093465443
C          185.59837990581551        5.13903363692789       -2.62263545943491
C          185.56896777274753        6.46215239474856       -3.02359526100874
C          186.17521656814637        7.42746296807705       -2.22457010845384
N          186.14655299112880        8.81862310238837       -2.63999158258242
O          185.57945679563852        9.08167823832661       -3.66929256369628
O          186.69233348932363        9.62384314346961       -1.92981287046008
C          186.80943733109362        7.08243742612076       -1.03448286787719
C          186.83773419204633        5.75569371604719       -0.64534429378195
C          185.04918085937888        2.69957496439504       -0.78617359096309
C          183.75211589146119        3.34567201916290       -0.88330406465680
C          182.83287509136363        2.40112236409834       -0.59692698425570
N          184.89671785095095        1.39626822502540       -0.42561108262630
C          183.56956337387112        1.18411838975079       -0.31457148756849
C          182.93378579141887       -0.02826532945561        0.02128593990331
C          183.57124750994248       -1.23843606377438        0.35497258082309
C          182.92775310117241       -2.46515726669094        0.66722334416761
C          183.89533687184013       -3.39181919349110        0.93985610467174
C          185.16098183792491       -2.75480902563852        0.81131789593185
N          184.91336226849211       -1.45806358848822        0.44801524258764
C          186.42554804987662       -3.33051282990873        0.98144666213839
C          186.46069559266240       -4.74978720156662        1.40120551482357
C          187.08786019208463       -5.70790061143789        0.59802952607327
C          187.12185941635221       -7.03554434036970        0.98288808418641
C          186.52739186799249       -7.40978226949847        2.18477141031210
N          186.56027798201501       -8.80239401637948        2.59402591986262
O          187.11791487270841       -9.58432581161181        1.86722640870484
O          186.02634777748787       -9.09058450463770        3.63449757475380
C          185.90080251527201       -6.47185233051614        3.00057800441957
C          185.86804456616989       -5.14753245846041        2.60400726248052
C          187.64285382278885       -2.66842986336128        0.78391619520971
C          188.94910145841209       -3.26449454836608        1.02190693102555
C          189.86056558744374       -2.31801811598771        0.72241930682268
C          189.11282213093912       -1.14139759670263        0.31438161176961
N          187.78028561742269       -1.38632210711440        0.37350026867331
H          190.80857666103611        0.04793318634492       -0.09444091826434
H          190.83054252144456        2.54461611577969       -0.95474805720307
H          188.94952611270281        4.37016323631443       -1.47605743090507
H          187.04551713624770        0.81419931849224       -0.23447410975822
H          185.14154367599934        4.37637296295607       -3.24235569416969
H          185.08563160321594        6.75616804950343       -3.94750909492225
H          187.26932397005288        7.85327661021592       -0.42785423090040
H          187.31610503805950        5.47688177945830        0.28636312979347
H          183.58874417721086        4.38382830376549       -1.12267633182085
H          181.75943717119503        2.49541844380612       -0.56355924298752
H          181.85989631677930       -2.61224904056626        0.67317771146149
H          183.74759086010789       -4.42833574235571        1.19524750428935
H          185.63534131789717       -0.76854443827166        0.26623333205312
H          187.53442887636928       -5.40677032155619       -0.34234964097466
H          187.59960483032350       -7.78536939160282        0.36384927762304
H          185.45034813017310       -6.78755557152697        3.93390777443793
H          185.39653353030550       -4.40609625538376        3.23851166899738
H          189.12068620594209       -4.26537303676871        1.38371508252499
H          190.93637827601032       -2.37658218116459        0.77182353388137
C           98.67606585439862        0.05167063968904       -0.03960080765150
C           97.44750082468073        0.05423409064541       -0.02717582046264
C           96.10333805251398        0.05135385164208       -0.01552378984243
C           94.87930011628870        0.04167777185338       -0.00377493774424
C          100.02002517337498        0.04406290521148       -0.05399424696762
C          101.24424046064438        0.03118077251857       -0.06479689627807
C          114.72498471815703       -0.04213403559711       -0.06158698220670
C          113.49586453037064       -0.03953473353518       -0.06539880232008
C          112.15191486843048       -0.03808669381069       -0.06995103457226
C          110.92722278400541       -0.03360328299465       -0.07632190679158
C          116.06893765644044       -0.04467737189687       -0.06045579164052
C          117.29365195804596       -0.04890307259550       -0.05932047300712
C          130.78571713289043       -0.04200374372926       -0.05018160347057
C          129.55652004153592       -0.04384814446252       -0.05057684990894
C          128.21239396720054       -0.04477783442986       -0.05074196423348
C          126.98759344107435       -0.04604550558333       -0.05390200300510
C          132.12981918201237       -0.04005186288518       -0.05068319824843
C          133.35461407053077       -0.04090652915488       -0.05034817245575
C          146.84952199614622       -0.04319098713289       -0.05730196501090
C          145.62032207424986       -0.04449933261307       -0.05759007164287
C          144.27620364700988       -0.04737867533717       -0.05849006851934
C          143.05141290669786       -0.04696931106379       -0.05808616687976
C          148.19363649106288       -0.04245917380271       -0.05933187032407
C          149.41843257470896       -0.04446260556722       -0.05849594398465
C          162.91038484814158       -0.06521874540979       -0.06303334097533
C          161.68128371245263       -0.06054223738640       -0.06318480021863
C          160.33731580309748       -0.05822515315650       -0.06227369209569
C          159.11260733666307       -0.05474997577273       -0.06405452329783
C          164.25434989876368       -0.07084226124106       -0.06401304131272
C          165.47901426179311       -0.07895065013373       -0.06304530179089
C          178.95951679316011       -0.07506415596033        0.02206612820789
C          177.73101100182836       -0.08546634091406        0.01470160993335
C          176.38686884476300       -0.09359198876428        0.00494703097146
C          175.16268988531175       -0.09794069429217       -0.00837511800841
C          180.30379680620098       -0.06089423184561        0.02703291104576
C          181.52774433217132       -0.04455114870426        0.02700839999241
C          102.64893618058460        0.01693404981798       -0.07576042667546
C          103.28212929835330        1.01719104029689       -0.83860701050752
C          102.64079673284793        2.04632563096293       -1.57467863893112
C          103.61012062327239        2.78564217593401       -2.19549411270307
C          104.87208024811440        2.22198970373096       -1.86192075262014
N          104.62377593040247        1.16379890280520       -1.03064908284825
C          106.13527561433760        2.66600990131269       -2.27489255870396
C          106.14961240110927        3.81036704857143       -3.21697622199730
C          106.77089678639760        5.01156151266440       -2.86196718917756
C          106.77845782023380        6.08392279364926       -3.73526448280325
C          106.16360464209265        5.95274493283891       -4.97716542235125
N          106.16729473558442        7.07605311457930       -5.89789563217452
O          105.61267639169681        6.93026482250928       -6.95687689830607
O          106.72297971447531        8.08431889979232       -5.54487803582818
C          105.54331230743877        4.76433022000507       -5.35180413109402
C          105.53674141440399        3.69988499125769       -4.46903292828731
C          107.36049494812228        2.12623990823016       -1.87881224936543
C          108.64612025410548        2.58261657566563       -2.37760998116381
C          109.58275194647443        1.83131833563539       -1.76319978348179
N          107.53683618621754        1.10253923782895       -0.99900058171810
C          108.86803590249092        0.91108861729453       -0.90052403831297
C          109.52248735955305       -0.03089604501120       -0.08080843570600
C          108.88937896409473       -0.98333802478541        0.74174823608926
C          109.53125877604228       -1.92034595861214        1.59203285540612
C          108.56174898017929       -2.67148107662638        2.19808484757983
C          107.29867570329998       -2.21979288483307        1.72666274141378
N          107.54727958905951       -1.19160531778897        0.85782228537612
C          106.03515695425641       -2.70456577191804        2.08772868800265
C          106.01198320991119       -3.85325158045563        3.02429699947499
C          106.60687226513350       -5.06813964085603        2.67082412660062
C          106.57753790851409       -6.14418825592729        3.53925060129875
C          105.95321126169831       -6.00242632811723        4.77516101507319
N          105.92045716979047       -7.12905219111183        5.69137412750412
O          105.36281030936880       -6.97266639090261        6.74712913614706
O          106.45311495688752       -8.14979560419667        5.33862316032954
C          105.35913851820374       -4.80019562130048        5.14837420761668
C          105.38922713835358       -3.73218983467582        4.27051076852122
C          104.80979571212674       -2.20137925797244        1.64480833562900
C          103.52357087247489       -2.77931978220782        1.99365863919525
C          102.58704696226965       -2.01952553751838        1.38968807395960
C          103.30243295962094       -0.98727827184579        0.66598554750487
N          104.63432803362880       -1.12911376306597        0.82571876208484
H          101.57432098362813        2.19772371606514       -1.61501473000193
H          103.46478622301433        3.65150629722505       -2.82039845351606
H          105.33983667804036        0.57680305747750       -0.61599206891562
H          107.23439759190519        5.10532581768539       -1.88689425899404
H          107.25087803601532        7.02104017049347       -3.46638261602574
H          105.07628134382038        4.68595519435700       -6.32619141709822
H          105.06789352849994        2.76523495909117       -4.75409327798940
H          108.79059626818531        3.36144944205868       -3.10854911792698
H          110.65466105525505        1.86980672848204       -1.87201452629929
H          110.59838751754963       -1.99926604120545        1.72211144412851
H          108.70733474863184       -3.46173410336049        2.91621032096621
H          106.83062751767832       -0.65942071322716        0.37569939520267
H          107.07707574413175       -5.17096524384049        1.69976696141121
H          107.02834094242571       -7.09204573038820        3.27086009690063
H          104.88323396171292       -4.71437090783693        6.11781589591478
H          104.93996338092958       -2.78736640440062        4.55316349879014
H          103.37818144637122       -3.65570313489500        2.60395364113211
H          101.51485568942189       -2.13035425150118        1.40899193502927
C          118.69830753278254       -0.04878106412204       -0.06040574108137
C          119.32709769926389        0.94815421249869       -0.83192899742628
C          118.68162363354151        1.96617335103227       -1.57972436416385
C          119.64868440640748        2.71270610138696       -2.19540680449369
C          120.91360799469048        2.16412731184962       -1.84796660453671
N          120.66875798396055        1.10717867496469       -1.01370874576135
C          122.17512004523672        2.61927640907961       -2.25336415361197
C          122.18604391771819        3.76520243930808       -3.19402474983701
C          122.79248610010566        4.97133017939704       -2.83015539478670
C          122.80114825259983        6.04482657898492       -3.70201422130430
C          122.20240300429234        5.90966657182724       -4.95130257043237
N          122.20929398178303        7.03358831000804       -5.87150708278785
O          121.67021603177770        6.88382443753472       -6.93782499190975
O          122.75297665973274        8.04567238726693       -5.51092807366867
C          121.59631425437925        4.71666256332771       -5.33435309953219
C          121.58835351854584        3.65101167749931       -4.45289990626505
C          123.40412387268934        2.09043342023617       -1.85376805817786
C          124.68611815409248        2.55643656097145       -2.35330415598300
C          125.62875752576504        1.81167162188572       -1.74015218614410
N          123.58867864858672        1.06890795102160       -0.97336268999693
C          124.92153672794342        0.88710759725560       -0.87619716376387
C          125.58279252955474       -0.04934354087116       -0.05571441149963
C          124.95389680916021       -1.00018551435075        0.77199866884017
C          125.59916382433923       -1.93131961590397        1.62586547030288
C          124.63205831538095       -2.68044727087247        2.23830122368906
C          123.36715443683720       -2.23338715172596        1.76725509336296
N          123.61224346386744       -1.20993293695365        0.89204306385066
C          122.10568339714798       -2.71899319605465        2.13519605988178
C          122.09194226324210       -3.86227870466428        3.07903525637865
C          122.68623036722970       -5.07769026418662        2.72631756724046
C          122.67008830588240       -6.14833870889139        3.60167442752563
C          122.05955112375452       -6.00044913434727        4.84372170906449
N          122.04215558124261       -7.12101224864047        5.76789003080872
O          121.49674371243793       -6.95955346731595        6.82919922533750
O          122.57463761977750       -8.14199264121708        5.41560210990765
C          121.46536093518476       -4.79793708145503        5.21574482346435
C          121.48207193178446       -3.73532160419084        4.33085715680808
C          120.87662874740217       -2.22538605319260        1.69246052364192
C          119.59466126519685       -2.80635895857337        2.05207275562395
C          118.65208638249996       -2.06140665219948        1.43903689909714
C          119.35937053891426       -1.03466887080184        0.69971933512442
N          120.69226129847883       -1.16437521850536        0.86030901421667
H          117.61405677066689        2.10634689748365       -1.63023406063204
H          119.49980997469412        3.57380690231607       -2.82603057258250
H          121.38665978948519        0.52963257616274       -0.58909076251577
H          123.24445772779008        5.06739273237624       -1.84989789649731
H          123.26271460118977        6.98548125718218       -3.42669977292701
H          121.14164214216494        4.63548129589745       -6.31433786532252
H          121.13105852359560        2.71268305721465       -4.74452570637731
H          124.82431718972089        3.33607163417510       -3.08458802977441
H          126.70024013929699        1.85742807813584       -1.85035027151512
H          126.66670258163968       -2.00786632733304        1.75396541829312
H          124.78066117798680       -3.46644898807152        2.96044687857184
H          122.89435679416354       -0.68139062495810        0.40775631604196
H          123.14638939335524       -5.18481872466726        1.75092087278120
H          123.12118921999486       -7.09634516387575        3.33432071335650
H          121.00025081428376       -4.70748071771169        6.18999602886552
H          121.03286688740656       -2.79017185626756        4.61250134016334
H          119.45619787736644       -3.67464818372168        2.67543268818251
H          117.58063882651592       -2.17884594185695        1.46178732708348
C          134.75940144257700       -0.04098030811564       -0.05261542645011
C          135.38843628662985        0.95617948411904       -0.82375390546044
C          134.74357421862263        1.97661454873058       -1.56882409315135
C          135.71098466146796        2.72311721864354       -2.18400280283346
C          136.97560327417824        2.17206044755407       -1.83925164326426
N          136.73012904281984        1.11364648575001       -1.00688941384918
C          138.23715607959375        2.62612092827211       -2.24551465862610
C          138.24972593755552        3.77573635877053       -3.18173282453059
C          138.85986420936064        4.97843603801644       -2.81254727495178
C          138.87293964326639        6.05538438846210       -3.68001342986790
C          138.27492809553860        5.92713157731921       -4.93038065283597
N          138.28751069072700        7.05438686953368       -5.84648089500519
O          137.75080024329043        6.91010304968644       -6.91473119791237
O          138.83327627829789        8.06350198459891       -5.48078953147489
C          137.66472392939315        4.73787128966638       -5.31846986599248
C          137.65222122259527        3.66870057134599       -4.44125037350243
C          139.46633111637550        2.09429793243009       -1.85002992696286
C          140.74770310120283        2.55898410052369       -2.35249335575061
C          141.69093762641060        1.81235545080577       -1.74250646298000
N          139.65176076144240        1.07169836253295       -0.97120269937174
C          140.98472712907920        0.88836131262918       -0.87725454466121
C          141.64661203972952       -0.04812477402772       -0.05740371874877
C          141.01768464805653       -0.99690652956067        0.77260179986979
C          141.66274187716780       -1.92687163156572        1.62780494381844
C          140.69533400488737       -2.67335515379266        2.24300229562613
C          139.43048265545812       -2.22590305573313        1.77214207760672
N          139.67588398848486       -1.20481816106878        0.89435648538509
C          138.16885529092266       -2.70948927480310        2.14241258237884
C          138.15611154383797       -3.84988763878716        3.08988754108779
C          138.74856952902064       -5.06696824199799        2.73988014574365
C          138.73548977991251       -6.13395993742350        3.61975664343607
C          138.12991319080754       -5.98063842638580        4.86356608772244
N          138.11670909700516       -7.09699223199452        5.79292056993832
O          137.57470211887511       -6.93118501322520        6.85529567462731
O          138.64899992230062       -8.11905297667207        5.44351442293270
C          137.53707947308808       -4.77656498117985        5.23266046269837
C          137.55059834752467       -3.71767963417494        4.34324430548916
C          136.93958872845408       -2.21623348702833        1.70005899103960
C          135.65794681258814       -2.79622330901702        2.06245123102839
C          134.71471382048651       -2.05231994460063        1.44915268622964
C          135.42116744975959       -1.02679806430750        0.70726167199463
N          136.75425208210231       -1.15661431075045        0.86623418521006
H          133.67614630234280        2.11848289684114       -1.61763616087073
H          135.56267934367375        3.58570654003786       -2.81273443935888
H          137.44763379935191        0.53435047151737       -0.58398139958844
H          139.31175866876117        5.06878250571370       -1.83170861466531
H          139.33777879097579        6.99322988203587       -3.40065427668960
H          137.21071016940058        4.66216238945430       -6.29920065594169
H          137.19194886775293        2.73314409394863       -4.73706351340191
H          140.88516379193786        3.33897472274241       -3.08353068725357
H          142.76219445339271        1.85680632562969       -1.85534893183191
H          142.73032125871811       -2.00427510528333        1.75507465386096
H          140.84377961518183       -3.45778585008764        2.96687961697596
H          138.95826366321626       -0.67628723331864        0.40966668191631
H          139.20526885701827       -5.17818408469707        1.76331713091011
H          139.18548678350416       -7.08314696260191        3.35473424771131
H          137.07581611062380       -4.68188375315003        6.20833392302531
H          137.10263242963561       -2.77125699449655        4.62257081206833
H          135.52029135724462       -3.66325471250158        2.68775559692969
H          133.64327933031524       -2.16951383906995        1.47359538211436
C          150.82325426308188       -0.04456594878226       -0.06034207727027
C          151.45247863732300        0.95196576216899       -0.83217765689831
C          150.80766174928735        1.97141106873644       -1.57876546680299
C          151.77514406535428        2.71854836674395       -2.19304816089263
C          153.03981381257208        2.16882261985605       -1.84643171730529
N          152.79421633253705        1.11037971384449       -1.01401473370022
C          154.30157281603141        2.62371199201111       -2.25078045559668
C          154.31648413306451        3.77456678447834       -3.18534977460443
C          154.92826142080986        4.97559802286785       -2.81329360554984
C          154.94614439281216        6.05338168913313       -3.67958373918624
C          154.35125946445240        5.92767767543681       -4.93170700663498
N          154.36985644096166        7.05546144116281       -5.84702663834341
O          153.83652700632504        6.91320839140612       -6.91724797827476
O          154.91682521541779        8.06299421851130       -5.47876984575278
C          153.73899680513054        4.74033352373884       -5.32241733754845
C          153.72166509864039        3.67027811455306       -4.44632640708101
C          155.53027296855404        2.09115583208350       -1.85458874988354
C          156.81222953489794        2.55508235545224       -2.35624022193137
C          157.75452853106017        1.80700307024041       -1.74659090113283
N          155.71432305449684        1.06791735467379       -0.97636661235227
C          157.04709334770354        0.88330602422573       -0.88209148462054
C          157.70793325127036       -0.05384267092352       -0.06243473008348
C          157.07884643524824       -1.00174492011411        0.76836284774354
C          157.72401672681286       -1.93101122011482        1.62417088082502
C          156.75663008594742       -2.67635789949252        2.24077482781615
C          155.49177680112254       -2.22910595529198        1.76979719327337
N          155.73705286376247       -1.20902146002683        0.89094197812761
C          154.22992733932537       -2.71196533707333        2.14058669904533
C          154.21778798018380       -3.85132756334881        3.08914931254081
C          154.81425875589625       -5.06716914417918        2.74139813098091
C          154.80502798133290       -6.13250370204507        3.62326462081063
C          154.19887286520702       -5.97895892262142        4.86677805797854
N          154.19074574961732       -7.09318646808697        5.79867793015487
O          153.64768385592072       -6.92754426607314        6.86055700705844
O          154.72851554809665       -8.11332270582324        5.45200068313572
C          153.60115929671142       -4.77649349250424        5.23325965580205
C          153.61109542630388       -3.71915885863840        4.34193405034562
C          153.00120602607623       -2.21845022210431        1.69719398921154
C          151.71900283991812       -2.79733535172478        2.05924676469922
C          150.77668004092598       -2.05381922636034        1.44409082417436
C          151.48424711526116       -1.02952123712530        0.70144896374241
N          152.81706593558565       -1.15973579323797        0.86182161648241
H          149.74016776878088        2.11223966641943       -1.62910846687164
H          151.62691368791479        3.58061879384648       -2.82252083846827
H          153.51184576816229        0.53208001201822       -0.58994665057562
H          155.37806939849824        5.06376911701093       -1.83129626522412
H          155.41268449285170        6.98976263893173       -3.39815146360914
H          153.28749352986469        4.66663717456519       -6.30445704082019
H          153.26018157783173        2.73603812466150       -4.74439644355701
H          156.95075639675505        3.33538391339342       -3.08673404556338
H          158.82587209626618        1.85042470591000       -1.85902341554159
H          158.79161800038253       -2.00869750252073        1.75104433192935
H          156.90531998970275       -3.45978282634486        2.96567320926789
H          155.01930886436639       -0.68091049029467        0.40597520944673
H          155.27154082921533       -5.17856981443036        1.76512728086513
H          155.25879448780145       -7.08043782709720        3.36019065590135
H          153.13939467197301       -4.68166070530351        6.20868120183497
H          153.15992952713148       -2.77376956043849        4.61960578111686
H          151.58048175917278       -3.66350694866155        2.68555837872603
H          149.70517556567381       -2.17053895500822        1.46773435534570
C          166.88379180928692       -0.08568668531919       -0.06236198824148
C          167.51763892850775        0.90882729072848       -0.83289883961751
C          166.87627076416143        1.92665539106919       -1.58502442718025
C          167.84642176326074        2.67243007319209       -2.19660452471814
C          169.10946434608107        2.12430245766903       -1.84177153886427
N          168.86007128133264        1.06707271893258       -1.00875130107567
C          170.37340472844218        2.58112557085995       -2.23609492649056
C          170.39684594090139        3.72943675789573       -3.17335843589095
C          171.00723058165150        4.93096668739496       -2.80044966019642
C          171.03865983019347        6.00390511893802       -3.67233320588452
C          170.45852325589937        5.87297949585352       -4.93083899753150
N          170.49408589062654        6.99452633516391       -5.85320228647509
O          169.97556208286002        6.84694780658346       -6.93001447740726
O          171.03975107136927        8.00246989308303       -5.48415839036427
C          169.84593525153360        4.68582038256655       -5.32163751969421
C          169.81498049745329        3.62065854966502       -4.43998946768456
C          171.59871344000047        2.05037690857680       -1.82667994866194
C          172.88590125162204        2.51803160143827       -2.31104788338038
C          173.82177121468564        1.77032229330127       -1.69129413599990
N          171.77323119309003        1.02485374520021       -0.94955977150154
C          173.10513342227586        0.84168332120841       -0.83968396228835
C          173.75774237453231       -0.10221973792246       -0.02200381595958
C          173.12423701654311       -1.06155867553670        0.79131240132756
C          173.76566825732152       -1.99991501371493        1.64009869982586
C          172.79573680068060       -2.75313576208065        2.24284318764475
C          171.53310726325026       -2.30106320233861        1.77056563864197
N          171.78200978055406       -1.27167917891906        0.90395939685422
C          170.26899723081223       -2.78461028718765        2.13299299921037
C          170.25260033866670       -3.93271009143105        3.07059601143258
C          170.85166444850714       -5.14468817087898        2.71351781630169
C          170.84421637363070       -6.21707370506419        3.58671110573174
C          170.23685199160772       -6.07483097267658        4.83101973424340
N          170.23325544147207       -7.19545198068159        5.75504144543986
O          169.68932164752877       -7.03961369053550        6.81802161459491
O          170.77626750972991       -8.21061582109769        5.40182614873895
C          169.63506166628699       -4.87702266446221        5.20607086313840
C          169.64342766978356       -3.81245064619094        4.32336533906077
C          169.04403998316837       -2.28094836484211        1.69106944047870
C          167.75740687548986       -2.85363882820192        2.04678375082478
C          166.82139690757569       -2.09984477050272        1.43452081823189
C          167.53735561086555       -1.07612000901137        0.69881786981650
N          168.86871152192560       -1.21573181071032        0.86187056842717
H          165.80899050223297        2.06692046408135       -1.64113345526780
H          167.70137219289904        3.53278514693068       -2.82918298001974
H          169.57643057540426        0.49028019343513       -0.58048539616820
H          171.44602992554292        5.02316929109340       -1.81385945683551
H          171.50533126745779        6.94018241188749       -3.39076651667349
H          169.40557512495744        4.60815526712892       -6.30841691680067
H          169.35391751719484        2.68628590558867       -4.73830184370617
H          173.03248471740238        3.30059698778927       -3.03749996297947
H          174.89432608635892        1.81618071701441       -1.79015044592451
H          174.83265387289327       -2.07793636840891        1.77189014407826
H          172.94129144593762       -3.54445518422184        2.95975084615213
H          171.06578367929905       -0.73888462879483        0.42187289001570
H          171.31052088927592       -5.24703698387008        1.73699054420824
H          171.30095502536363       -7.16160800676814        3.31664056459612
H          169.17224131181902       -4.79109392226199        6.18181726118830
H          169.19020653218240       -2.87028833310226        4.60854589962592
H          167.61194218740573       -3.72261271151106        2.66763726352351
H          165.74909583277173       -2.20956126965962        1.45542792549294
