432
 energy: -755.543596253556 gnorm: 0.000510168297 xtb: 6.5.1 (b24c23e)
C           93.72781995024825        0.08279986693463       -0.02554386681089
C           94.34149138376941        1.32722554872324       -0.08587474479818
C           93.69469803021293        2.59495361611964       -0.10629166658759
C           94.65978400024865        3.55917040173648       -0.18100648950715
C           95.92745575852938        2.91074885587632       -0.22080126530644
N           95.68489001723498        1.56861402928742       -0.14929568177054
C           97.19289388390538        3.50330770705015       -0.30017665558910
C           97.23330528703032        4.98214102409121       -0.39155166377730
C           97.88295032787254        5.73206754228036        0.59206977531816
C           97.92086957288774        7.11256820625423        0.51612710987463
C           97.31044348855212        7.77260344697115       -0.55462487757893
C           97.34953549828595        9.19317214730732       -0.63742556440588
N           97.38071396139161       10.34157455458037       -0.70396686883967
C           96.66163913655259        7.02694498735585       -1.54328741401950
C           96.62276154303294        5.64672061958296       -1.45774468104002
C           98.40512447166904        2.80811237015982       -0.29818343267227
C           99.70275509136493        3.44005433658436       -0.45776659172866
C          100.61892101182728        2.45171101156964       -0.39743884097681
N           98.55385884188088        1.46174225511704       -0.16729819753937
C           99.87963382100858        1.21836789405421       -0.20865606966297
C          100.51162021125241       -0.03280355500559       -0.06543629020437
C           99.87275606436792       -1.27773928337290        0.08357042159171
C          100.51331368107424       -2.53411101518515        0.25135509043547
C           99.54382668446759       -3.49546632165492        0.32477117764302
C           98.28023965370122       -2.85483364218362        0.19475501153610
N           98.53072192326164       -1.51482319801561        0.06387983844660
C           97.01583944230616       -3.45377550586123        0.21639131856566
C           96.97928180968613       -4.93101368551793        0.32347773440396
C           96.34137298756148       -5.54893382178495        1.40195154675302
C           96.30767571543919       -6.92786174117491        1.50525899976720
C           96.91030376757136       -7.71963178994597        0.52308438555955
C           96.87492234317654       -9.13909549032036        0.62405221701954
N           96.84887958507954      -10.28673680626644        0.70484170589857
C           97.54781798869271       -7.10666135550229       -0.55970880285804
C           97.58264295934585       -5.72707065816016       -0.65346357068065
C           95.80160042445655       -2.76239420942272        0.14240226294570
C           94.49485898136462       -3.40140950202822        0.11015075223682
C           93.58565732239849       -2.40827073110288        0.04593927161002
C           94.33570646876188       -1.16455078630875        0.02595360281004
N           95.66688569510399       -1.41705584050896        0.07414722144565
H           92.64259513403451        0.09638083114699       -0.01841122039499
H           92.62676399019880        2.73714169152973       -0.06192893422408
H           94.51263288966678        4.62684019741915       -0.19861811839974
H           96.40761981754521        0.85668782824718       -0.14086827656695
H           98.34680962984643        5.22442053000924        1.43018572679061
H           98.42184008012725        7.68741560464058        1.28619331319632
H           96.19158843155364        7.53477820594602       -2.37732639863566
H           96.13115048319420        5.07211001864690       -2.23471058014000
H           99.86791137867147        4.49418898610994       -0.61095130197220
H          101.69184586075737        2.52316769224669       -0.47691033403525
H          101.58055417820593       -2.67381695351302        0.31191454742253
H           99.68803985841758       -4.55401068941820        0.46702482792794
H           97.81049711576881       -0.80622493507050       -0.03015247231696
H           95.88477431016157       -4.93863997075615        2.17287615154396
H           95.81607205979532       -7.39944836870168        2.34808166301933
H           98.01221690560051       -7.71693766583186       -1.32545993163610
H           98.06556133123533       -5.25647845753094       -1.50252809101829
H           94.32203509621979       -4.46549343087206        0.12131966655269
H           92.51005496142858       -2.47871220630387        0.00534204669581
C          181.16590004188168       -0.12967671765143       -0.02380021002011
C          180.55704414298029       -1.33230403831832        0.31063911549519
C          181.20969507323778       -2.54654032458670        0.66490134467294
C          180.24799856118400       -3.48376955905385        0.91678820419285
C          178.97640368628180       -2.87483154179515        0.71397160763039
N          179.21372277132033       -1.57760812337522        0.35893007902771
C          177.71264351943350       -3.45658838212381        0.86658113428295
C          177.67976033289858       -4.89049124437069        1.24149002434785
C          177.07683878018506       -5.29675993811397        2.43434174210522
C          177.04474338131254       -6.63351364707864        2.78838290839441
C          177.61413808878737       -7.59504310860389        1.94817687477857
C          177.57996476210877       -8.97216236536858        2.30710807855917
N          177.55155454825865      -10.08554145645876        2.59661542454622
C          178.21721041990648       -7.19406297970414        0.75238095640763
C          178.25061754955624       -5.85478473455834        0.40753333625260
C          176.49674299810323       -2.79179365778677        0.68829402992068
C          175.19841576185416       -3.43407922419680        0.79066742294383
C          174.27894931204511       -2.47825163503056        0.54454154262910
N          176.34411969469875       -1.47754153388361        0.36878998100264
C          175.01663638101107       -1.25715925951470        0.28315266293430
C          174.38127572833741       -0.03629105733531       -0.01944639672501
C          175.01581540580383        1.18336059224492       -0.31982198685879
C          174.37008269481822        2.42077060978484       -0.58230884276997
C          175.33611039683933        3.35944089419508       -0.81682455557368
C          176.60286918721397        2.71978053463419       -0.71593333264523
N          176.35718766078313        1.40825657778690       -0.40685101302210
C          177.86581915844451        3.30219558350033       -0.86841391086672
C          177.90000263624600        4.74260546573965       -1.21426407493540
C          178.52035699349145        5.65863067580722       -0.36095349962644
C          178.54957955035059        7.00563707986061       -0.67358917694347
C          177.96012865210778        7.46387526010346       -1.85567666013216
C          177.98909377076851        8.84937889926966       -2.18107934690151
N          178.01215138249580        9.96945705047787       -2.44407240140313
C          177.34207273614459        6.55104796533017       -2.71547950959786
C          177.31163468150945        5.20603255837901       -2.39354432687627
C          179.08224146218038        2.62737845281829       -0.71713313233548
C          180.38673814037517        3.23077608625713       -0.94328218208539
C          181.29924549422117        2.26703819014536       -0.70752109237636
C          180.55356653569328        1.07400086009160       -0.34638660604084
N          179.22156574424915        1.32598096308550       -0.37149753961606
H          182.25116076650423       -0.14092610698180       -0.02997659932022
H          182.27915417820867       -2.67142910134453        0.72256052693082
H          180.39998079667683       -4.50539022818901        1.22514974817510
H          178.48770966042159       -0.89590847602883        0.16533630020263
H          176.64486542312272       -4.55286389346699        3.09412439651266
H          176.57977575170821       -6.94026189558146        3.71796472055173
H          178.65578114859824       -7.93692778726896        0.09643064262852
H          178.70643009719799       -5.55009333082409       -0.52784766926540
H          175.03434105743989       -4.47752598124719        1.00559906778869
H          173.20454695372555       -2.56714358765096        0.52659516957618
H          173.30189159061709        2.56616896233030       -0.58090976160704
H          175.18713403485532        4.40530470078611       -1.03010088400616
H          177.08047094463046        0.71296060377356       -0.25472680971062
H          178.96636589722593        5.30920017150022        0.56332108477635
H          179.02695463033282        7.71063691918468       -0.00312242934431
H          176.88878405639070        6.90168594116453       -3.63528261676417
H          176.84362351607848        4.50017700070604       -3.07048873643475
H          180.55558874485382        4.24892316186336       -1.25497472466534
H          182.37450151515031        2.32472059736911       -0.77094390779654
C          103.14033206914721       -0.06870255301295       -0.07033841201333
C          101.91856230577071       -0.05307183006197       -0.06911361696975
C          104.49025305152283       -0.07755342796123       -0.07022340913831
C          105.71218660124889       -0.08489492254671       -0.06905439011511
C          116.59508599791953       -0.03826090123888       -0.02505301893611
C          115.37244045684531       -0.04405812389068       -0.03106220895465
C          117.94319407752717       -0.03150510975001       -0.02320378243122
C          119.16586894121730       -0.02930657031211       -0.02109023425477
C          130.04675465281292       -0.00527163827831       -0.01116332549807
C          128.82406308344881       -0.00368329097280       -0.01510999171837
C          131.39475564903177       -0.00565368980558       -0.01242065814388
C          132.61745369844499       -0.01151175006662       -0.01098328422293
C          143.49720515181079       -0.01021592452347       -0.00940070000744
C          142.27452787548552       -0.01037320897686       -0.01417638920789
C          144.84519510460839       -0.00916517318001       -0.00959986839206
C          146.06788358317016       -0.01259483565813       -0.00841260963175
C          156.94844989964184       -0.03407880544260       -0.03370821894700
C          155.72578548226218       -0.03338002545221       -0.03357135950399
C          158.29658235575306       -0.03179503792712       -0.03657373524532
C          159.51923892706728       -0.03203233515317       -0.03806653055571
C          170.40271465647106       -0.00579908975164       -0.03310935844005
C          169.18072404322797       -0.00388993908192       -0.03826176692986
C          171.75252317906475       -0.01013449302398       -0.02928218083753
C          172.97436355239032       -0.02139612072047       -0.02380819924507
C          107.11838569335332       -0.08445824063303       -0.06910444819249
C          107.74169618344924        0.85070059029768       -0.91709170594618
C          107.08935401977958        1.79785607803596       -1.74818930978274
C          108.05058400239751        2.48497078649704       -2.43797449028442
C          109.31828462051280        1.96991947505958       -2.05305214945970
N          109.08148424204987        0.99431189701772       -1.12266183646948
C          110.57637050433803        2.37731170702812       -2.51484113942158
C          110.58661684783146        3.41919948942531       -3.56985860395494
C          109.97523864498177        3.18332011604886       -4.80354610655073
C          109.98706879960891        4.15044630278544       -5.79251343479107
C          110.60848159014147        5.38128283165193       -5.56157974120647
C          110.61996256697279        6.37972248343789       -6.57627437525234
N          110.62862442317889        7.18610012582392       -7.39713629884710
C          111.21839611014379        5.62388529236498       -4.32719377616400
C          111.20810045292897        4.64983706459517       -3.34507210989861
C          111.80232673677102        1.88285416102900       -2.06710074099541
C          113.08685871648721        2.28423720468911       -2.61244602429679
C          114.02484510327757        1.60687756763187       -1.91870593361057
N          111.98054191544249        0.96159276086868       -1.08020703854638
C          113.31140926479756        0.78606915662506       -0.95999820620369
C          113.96831916671800       -0.05368279230218       -0.03775188150768
C          113.34416322055374       -0.91249984873187        0.88768255320498
C          113.99561458861753       -1.73353981370037        1.84408242166924
C          113.03430011090740       -2.42456301899890        2.52980015634888
C          111.76747295040536       -2.05219320015116        2.00314826809531
N          112.00533908454267       -1.12730612092377        1.02188873686174
C          110.50964264953876       -2.51864452041048        2.40416448478753
C          110.49576356033477       -3.55252367937522        3.46686144243870
C          111.12186208873527       -4.78534332186606        3.26857287539608
C          111.10863401391470       -5.75005050359166        4.26002068713723
C          110.47079423371332       -5.49513312813005        5.47761752849321
C          110.45858461359055       -6.48383737955594        6.50178897862966
N          110.44914255073543       -7.28266533034939        7.32999959639069
C          109.84481484087063       -4.26185372191270        5.68210717177826
C          109.85667419571895       -3.30430687162365        4.68407101597638
C          109.28446878263804       -2.08909261447591        1.88980955986690
C          108.00186344887315       -2.64785087260361        2.27888208395231
C          107.06379542231350       -1.97024976671007        1.58545258747444
C          107.77507856074101       -1.00605516019567        0.76949803911572
N          109.10623175251516       -1.11088492694435        0.96070088942281
H          106.02118621945472        1.93245647751248       -1.80257332254074
H          107.89684873487414        3.28453380038716       -3.14404841830847
H          109.80518981096287        0.45891260790049       -0.65483117775101
H          109.50397766471731        2.22517531338505       -4.99173083367835
H          109.51688473138464        3.95710889267632       -6.74958416672263
H          111.69771397244911        6.57826512523404       -4.14333914227918
H          111.67174110454971        4.84594944586243       -2.38495073035522
H          113.22966538253260        2.97839578345208       -3.42460770138605
H          115.09684278581729        1.63541984328461       -2.03097774906225
H          115.06314785279820       -1.77913394798812        1.98688114116936
H          113.18758906201600       -3.12340100590562        3.33576578466562
H          111.28220477585116       -0.66659258621356        0.47960887598040
H          111.60601522204723       -4.99260663787326        2.32086409540433
H          111.59087868084652       -6.70660668901271        4.09611699631254
H          109.35223768401819       -4.05943773077326        6.62592280646491
H          109.38066735535254       -2.34463144064854        4.85056071868211
H          107.86086730188383       -3.45783379079755        2.97596341982397
H          105.99298608554169       -2.09544857074848        1.60133489720239
C          120.57000631213812       -0.02534837976039       -0.02192068510709
C          121.19206747827619        0.86844165768342       -0.91540265344452
C          120.53731047837010        1.77914155580502       -1.78409018762803
C          121.49729886482038        2.44772080215996       -2.49382763178236
C          122.76643882124192        1.95634300188781       -2.08412524537894
N          122.53142658536517        1.01172780555990       -1.12140322041940
C          124.02433514541413        2.36109843347738       -2.54858818095968
C          124.03341713013786        3.37779969799136       -3.62809135898661
C          123.43597414244596        3.10747613085945       -4.86145474891058
C          123.44579752444098        4.05259001704349       -5.87157450883908
C          124.05113412786167        5.29529364707445       -5.66269409343661
C          124.06011733136465        6.27146446712950       -6.69888887213385
N          124.06693704180195        7.06025478291604       -7.53661177339135
C          124.64750072834822        5.57207793666772       -4.42888774882743
C          124.63933570854444        4.61998685081045       -3.42545847868225
C          125.25131848293951        1.88711895176199       -2.08191493878284
C          126.53567809740561        2.28472025686870       -2.63023001092636
C          127.47457358083938        1.62417375577222       -1.92162991919328
N          125.43071156014275        0.98674746334049       -1.07605861659559
C          126.76198507068403        0.81813611847606       -0.94994610984961
C          127.42004762229276       -0.00737132257218       -0.01578454670665
C          126.79780228376782       -0.84977530259337        0.92613822718927
C          127.45233707299766       -1.66178434141258        1.88793798092198
C          126.49242130425179       -2.33457105900740        2.59368162592787
C          125.22362030638936       -1.95868350638333        2.07505412642367
N          125.45874492602918       -1.05180171616913        1.07663318494721
C          123.96600206347598       -2.40309047686538        2.50193298987179
C          123.95699888812976       -3.42076448274527        3.58049930052587
C          124.55946295602318       -4.66582077244132        3.38546350416203
C          124.55029719294203       -5.61810150485717        4.38883317137185
C          123.94058015532782       -5.33799759289532        5.61526845923466
C          123.93247474464042       -6.31437783516945        6.65128124447231
N          123.92662770182028       -7.10349326526722        7.48880496685782
C          123.33908465682600       -4.09213017374056        5.81667383942381
C          123.34660049891382       -3.14696094789239        4.80672755507611
C          122.73910727096947       -1.96947152341327        1.99704727343875
C          121.45534504981481       -2.49848637571403        2.42155019477872
C          120.51635701312320       -1.83320456875904        1.71749531827612
C          121.22838306951995       -0.90768049790026        0.85845942479098
N          122.55958722372911       -1.01872028797816        1.03884069888229
H          119.46855718665000        1.90476343356397       -1.84775913284255
H          121.34139760163025        3.22020547996976       -3.22895659729336
H          123.25657151333866        0.49901322455057       -0.63091393642342
H          122.97718206943421        2.14009355649940       -5.03233367858013
H          122.98627374392801        3.83278134577154       -6.82810168754045
H          125.11450726396924        6.53566721118706       -4.26219691050808
H          125.09233366280773        4.84248640085023       -2.46600497785904
H          126.67781818750670        2.96469331023283       -3.45441470153282
H          128.54676403090826        1.65539154206468       -2.03127349327797
H          128.52084859203589       -1.71427544435384        2.02058595895271
H          126.64809046998973       -3.02283319240889        3.40824383860925
H          124.73378766128731       -0.59456552456002        0.53380925421696
H          125.02175062486184       -4.89211392290427        2.43121293535031
H          125.01380872473196       -6.58430153310446        4.22748031534993
H          122.86868937926224       -3.87021663208921        6.76739037142395
H          122.88961007255428       -2.17763936328043        4.97056849915715
H          121.31370444594873       -3.28206008839546        3.14804060531938
H          119.44447706031629       -1.94496127801841        1.75138796224330
C          134.02146701294640       -0.01538434795613       -0.01597569405326
C          134.64493711921978        0.87475747200590       -0.91210662015170
C          133.99145814660503        1.78623166408562       -1.78099012211691
C          134.95220057898570        2.44986977597054       -2.49427257633797
C          136.22049466654147        1.95495177337853       -2.08621719166973
N          135.98427022719608        1.01284560165168       -1.12129043559960
C          137.47876500519149        2.35548391253300       -2.55308537336082
C          137.48868535965704        3.36997011512981       -3.63463244047991
C          136.88882642363018        3.09825817635235       -4.86652577860931
C          136.89835777766618        4.04150188866272       -5.87838195175275
C          137.50580644672416        5.28370861528192       -5.67271928383402
C          137.51415900777991        6.25814337450406       -6.71055952098057
N          137.52034176678350        7.04568472040943       -7.54951104137984
C          138.10478568658249        5.56178572515346       -4.44047464328718
C          138.09690722888271        4.61153979028486       -3.43528733016884
C          138.70503191518736        1.87988782397925       -2.08614150446477
C          139.99002820946797        2.27484397694929       -2.63472399696999
C          140.92783096916418        1.61458678868980       -1.92438826702988
N          138.88282985689094        0.98074891461322       -1.07892212038454
C          140.21385292756162        0.81059470391645       -0.95204832060846
C          140.87051785967404       -0.01514837413451       -0.01710359969513
C          140.24707525443790       -0.85808658059863        0.92357183979903
C          140.90056746828290       -1.67274361978856        1.88380609851403
C          139.93981871408809       -2.34621017749635        2.58781352942919
C          138.67150629616975       -1.96743249980107        2.07017413137827
N          138.90773376902345       -1.05877810808684        1.07368367601806
C          137.41322778813432       -2.41022402898675        2.49716654088744
C          137.40336210777650       -3.43121714838733        3.57257940604634
C          138.00327418424371       -4.67675267369291        3.37264005530844
C          137.99378477433967       -5.63230781593762        4.37287816741557
C          137.38629878738394       -5.35512309602470        5.60109337332711
C          137.37803094538026       -6.33479613049041        6.63398977726546
N          137.37235493417816       -7.12661234484310        7.46886534051829
C          136.78733203063737       -4.10884806022671        5.80739263407588
C          136.79518398223729       -3.16035130092660        4.80055487841129
C          136.18694603255744       -1.97149983985927        1.99542583673632
C          134.90192910990564       -2.49617235614462        2.42158358536057
C          133.96412207982857       -1.82509311610195        1.72146242248261
C          134.67811305585698       -0.90102182634830        0.86244497464662
N          136.00914705980725       -1.01797478684123        1.03952864526742
H          132.92302520192476        1.91552725134673       -1.84258430890771
H          134.79740891953574        3.22140517486034       -3.23062804232902
H          136.70871561087969        0.49860360187067       -0.63137298335794
H          136.42816635313272        2.13130193609746       -5.03477762042046
H          136.43683418373143        3.82066705433174       -6.83370838996124
H          138.57346812534104        6.52499311349702       -4.27630722727859
H          138.55171781722839        4.83516587774702       -2.47695594121976
H          140.13331196095709        2.95323978049549       -3.46000688512841
H          142.00009541935393        1.64436358560725       -2.03363843844217
H          141.96901189988463       -1.72682583535382        2.01635040303849
H          140.09462228229265       -3.03656714728815        3.40076559687254
H          138.18327933194564       -0.59944938998236        0.53195720691354
H          138.46389297296736       -4.90071097767768        2.41703004724636
H          138.45536868540674       -6.59878815959686        4.20772642509996
H          136.31868927951646       -3.88919202957216        6.75949919702726
H          136.34030889263948       -2.19071165229096        4.96832962065064
H          134.75863442367051       -3.28083673794241        3.14657590755796
H          132.89184599083555       -1.93232449140788        1.75759107035256
C          147.47189611912276       -0.01541109739795       -0.01263613215999
C          148.09533901930661        0.87506767172243       -0.90840430885757
C          147.44207792899988        1.78943958379629       -1.77442556223703
C          148.40293714464011        2.45422368406554       -2.48645420941875
C          149.67106609138139        1.95653706078146       -2.08113601845044
N          149.43460275557163        1.01213027264017       -1.11845484690367
C          150.92934076622919        2.35550372071328       -2.54902337744474
C          150.94024710296591        3.37495101424567       -3.62588905840579
C          150.33721920768573        3.11154483520162       -4.85801142465575
C          150.34815950111008        4.05992520521981       -5.86506319884803
C          150.96029441852374        5.29896239141281       -5.65424663127979
C          150.96962937257123        6.27890632518781       -6.68687675186688
N          150.97872177069675        7.07015315998006       -7.52233882328567
C          151.56249933977963        5.56872175612183       -4.42172308009432
C          151.55316266208212        4.61339613777754       -3.42140312711465
C          152.15543241450314        1.87397869953261       -2.08742783963350
C          153.43979638090326        2.26530794054782       -2.64004345679110
C          154.37773256624695        1.59887952369251       -1.93567708084188
N          152.33353181558508        0.97139002046248       -1.08346919277220
C          153.66445999278156        0.79549070237456       -0.96236063670607
C          154.32163042318675       -0.03374735608789       -0.03093373403757
C          153.69848731553213       -0.87337956155397        0.91286458170377
C          154.35220490310493       -1.68855470740195        1.87248732901484
C          153.39129252283286       -2.35530879762313        2.58267606765186
C          152.12258148246545       -1.97220094958230        2.06922772346019
N          152.35883368965517       -1.06776647773788        1.06894502796550
C          150.86394741327032       -2.40807905289148        2.50237910890882
C          150.85278555656217       -3.42302125154863        3.58351958005406
C          151.44620533302339       -4.67258165883405        3.38968749141551
C          151.43456792744738       -5.62199255092567        4.39577704871004
C          150.83145810663427       -5.33445466675708        5.62373898794474
C          150.82061032813834       -6.30782970491064        6.66255237800018
N          150.81189154564839       -7.09494060914845        7.50196266738381
C          150.23884873041132       -4.08411790324041        5.82388491814521
C          150.24877401024588       -3.14184672917458        4.81127208272599
C          149.63769645646624       -1.96797717371011        2.00183428021613
C          148.35251917979602       -2.48898818206347        2.43213373804977
C          147.41466164206724       -1.81989779188391        1.73022471798480
C          148.12868978415523       -0.89981955778443        0.86692213481908
N          149.45979816343637       -1.01783855235010        1.04258959383845
H          146.37372907201936        1.92010509708522       -1.83465550213224
H          148.24832000564462        3.22808809730291       -3.22039933703580
H          150.15887595310267        0.49572773239545       -0.63055131033794
H          149.87302217018015        2.14701521994731       -5.03040359269097
H          149.88407598250095        3.84558247566115       -6.82062711933969
H          152.03479084998531        6.52946537366703       -4.25351082863072
H          152.01063942738713        4.83046716262594       -2.46283236014084
H          153.58249276111641        2.94542300109608       -3.46401236242035
H          155.44963322370120        1.62439810092246       -2.04943352847865
H          155.42094290470988       -1.74725254487786        2.00063268176564
H          153.54631897877485       -3.04400110348925        3.39699854450845
H          151.63424189894261       -0.60638773870709        0.52913648162532
H          151.90336273186452       -4.90461628903947        2.43434524035638
H          151.89095476712899       -6.59172805246555        4.23532524317484
H          149.77338914926821       -3.85653800444885        6.77569378121695
H          149.79879151342857       -2.16908294810429        4.97411235015636
H          148.20919237709646       -3.27042570083532        3.16059716815727
H          146.34230031333928       -1.92559378191248        1.76825174421530
C          160.92346528487099       -0.02889799797799       -0.04102011943789
C          161.54454682008418        0.87381719544965       -0.92585478055136
C          160.88869040094090        1.79061420050812       -1.78758293359010
C          161.84809741361806        2.47279340014047       -2.48466636433346
C          163.11837898959055        1.98465512848387       -2.07373714391275
N          162.88395103800516        1.02639581478841       -1.12423334940980
C          164.37567019246183        2.40733637595696       -2.52211202409037
C          164.38335106531704        3.44194070522774       -3.58466521923156
C          163.80197058045712        3.18404115094904       -4.82830848755951
C          163.81051946240629        4.14514416323352       -5.82323308358365
C          164.39831742011955        5.39161821973005       -5.58836935345777
C          164.40637051449480        6.38405573913411       -6.60899146622491
N          164.41277289581114        7.18594420220274       -7.43426161687343
C          164.97821267662994        5.65604985572330       -4.34404620187238
C          164.97146699933987        4.68806936482366       -3.35589569313213
C          165.60394605190373        1.93546318767459       -2.05520263986375
C          166.88844669222382        2.35778275518386       -2.58469795160056
C          167.82831110820993        1.68618051354221       -1.88804670225490
N          165.78401144090790        1.01185142174539       -1.07176818313438
C          167.11652739824569        0.84781288256055       -0.94349260645090
C          167.77461500286120       -0.00854057456077       -0.03913762517979
C          167.15387449618902       -0.88149401727732        0.87455108698186
C          167.80971681573254       -1.72095512642018        1.81190844263768
C          166.85047653320828       -2.40292274949262        2.50935578176485
C          165.58030585663920       -2.00596459793502        2.00968057722162
N          165.81427345274378       -1.07976830500859        1.02918328786177
C          164.32261059843705       -2.44607906778226        2.44106361949742
C          164.31364781383934       -3.47408996269376        3.50997739894414
C          164.90098591555625       -4.72371876949211        3.29928631603048
C          164.89245805680341       -5.68334392602959        4.29573412819580
C          164.29846976496549       -5.40630570487066        5.53055800896293
C          164.29184039588114       -6.38970217217902        6.55989797820938
N          164.28738878983498       -7.18420046577947        7.39226915707103
C          163.71133749954686       -4.15615471420998        5.74728781586291
C          163.71825468376846       -3.20360543812578        4.74434806696319
C          163.09506624662751       -1.99758061535829        1.95129491612506
C          161.81115337350090       -2.52404910890679        2.37901312534690
C          160.87131660952437       -1.84891306587815        1.68569670337738
C          161.58281098926790       -0.91903859647847        0.83072550875777
N          162.91433971697754       -1.03680014063063        1.00336031636116
H          159.81952955935486        1.91068947919580       -1.85511487722005
H          161.69135804791475        3.25267294754557       -3.21177764388085
H          163.60952845561710        0.51183625716657       -0.63632677343307
H          163.35679977567011        2.21402363302517       -5.01912469862927
H          163.36364955813946        3.93501303521439       -6.78789952645309
H          165.43138523456560        6.62254321051279       -4.15720887190021
H          165.41167190369086        4.90079291458533       -2.38830975375209
H          167.03012143453662        3.06068815673778       -3.38948836182625
H          168.90082972428831        1.72834049996252       -1.99038407703300
H          168.87876047909344       -1.78355560785146        1.93547579280231
H          167.00745021682908       -3.11071417052922        3.30674478947568
H          165.08847076329536       -0.60447280629248        0.50325377511342
H          165.35101020599950       -4.94761309557513        2.33863571119739
H          165.34445436898417       -6.65293276405198        4.12248550746989
H          163.25277854720366       -3.93671493638580        6.70435175986949
H          163.27256813554862       -2.23107071204064        4.91991865672158
H          161.67008667597432       -3.31308443974518        3.09969398400945
H          159.79914248447946       -1.95624187343299        1.72452208580227
