120
 energy: -195.905305350904 gnorm: 0.000389121190 xtb: 6.5.1 (b24c23e)
C            9.35239017508687       -0.08601328941797        0.05425704745149
C            9.96078165575817       -1.16486890822451        0.68271432260496
C            9.30909785978993       -2.26296974865834        1.31125715939451
C           10.27166788739033       -3.09109418554331        1.81634234397781
C           11.54261635003857       -2.52151262935019        1.51920613576916
N           11.30419343474865       -1.36757296421186        0.82799945446408
C           12.80506273115976       -3.03218473075463        1.84040228734360
C           14.02134179883336       -2.44644286789253        1.48330096234789
C           15.31796415674749       -2.96965439185778        1.87403534644665
C           16.24048197962349       -2.14037948439025        1.34349867550463
N           14.17811003794943       -1.31124858046357        0.74749400781995
C           15.50605990683079       -1.10695695138097        0.63969635697031
C           16.14469634195163       -0.05452879877956       -0.04803525251520
C           15.50933201999091        1.01170564981600       -0.71271747756518
C           16.15338750588865        2.06249411004831       -1.41788815542674
C           15.18692502810518        2.90068770448584       -1.90103143748677
C           13.92181225213424        2.39015207465272       -1.49831152557851
C           12.66092103967662        2.92630250486591       -1.78032309294816
C           12.63203298116233        4.20261462643847       -2.53566204961716
C           12.00759284748715        4.27454855865683       -3.78177214036529
C           11.98301174070393        5.46896893555848       -4.48584512869532
C           12.57671332406677        6.60572673546935       -3.95412678642570
C           13.19855122161369        6.54287179707552       -2.71453665932035
C           13.22932933648507        5.34912599671789       -2.00947501518393
C           11.44363451391992        2.34999015464290       -1.40260527134723
C           10.14129122677606        2.94316069892182       -1.66351714524355
C            9.22557758978089        2.09386387444551       -1.15555317673603
C            9.96751796089787        0.99009129117658       -0.57225449949721
N           11.29980614589234        1.18161730052677       -0.73300609742311
N           14.16865809025953        1.24291229346836       -0.79110689570569
C           12.83443735584183       -4.29329263553527        2.62249645306747
C           12.27926822837579       -4.34529850474049        3.90164226358785
C           12.31104426408014       -5.52371572022369        4.63226102032377
C           12.89070695804272       -6.66400745703909        4.09300306418167
C           13.44188231931524       -6.62103742168658        2.81949140224718
C           13.41709630307747       -5.44318612381146        2.08809514255306
H            8.26705637378065       -0.08911419736795        0.06445559951640
H            8.23967798271132       -2.39288044859112        1.35983326275376
H           10.12141776705592       -4.02002766175986        2.34220361340126
H           12.02885440162234       -0.75324285171545        0.47211018901529
H           15.47863567943723       -3.84463482645785        2.48277475136164
H           17.31495155479924       -2.19584268662052        1.41492374269580
H           17.22077801906973        2.15413489746404       -1.53846462839930
H           15.33361113820948        3.78920716642690       -2.49318005640209
H           11.55545423714805        3.38450851937866       -4.20498233095654
H           11.49890802481457        5.51198648424996       -5.45522359989117
H           12.55474496307375        7.53924586333180       -4.50489520495126
H           13.66108035304568        7.42848278377396       -2.29298867226911
H           13.70287512395196        5.30607113674422       -1.03484908802564
H            9.97529511037996        3.88706800160864       -2.15735538676282
H            8.15047446851885        2.18327919248722       -1.15117758327430
H           13.44719015216901        0.65269721850723       -0.39019650972372
H           11.83827680136713       -3.45197918212940        4.33004693474899
H           11.88260680281261       -5.55079671095800        5.62810411557596
H           12.91323815210060       -7.58493505330621        4.66456389369166
H           13.89317988478879       -7.50990688325800        2.39273143897107
H           13.83774997866145       -5.41385137508828        1.08914324860973
C           32.11091282776592        0.08322284710168       -0.05647932007810
C           31.50283714112126        1.11305212189208       -0.76270134354462
C           32.15482316596778        2.15055778450348       -1.48665258923767
C           31.19250318532932        2.96170252148071       -2.01905333979947
C           29.92143040817128        2.45001686547475       -1.63106693167468
N           30.15951176406498        1.33170427638867       -0.88347026825768
C           28.65907701641776        2.95886581074784       -1.95542818175132
C           27.44277774561745        2.38597706514957       -1.57818104112954
C           26.14623739056299        2.96291315163116       -1.88431811265142
C           25.22364763105122        2.12933515554757       -1.36069060993520
N           27.28590304528227        1.23583574456616       -0.86595024447328
C           25.95796581226778        1.05141203394268       -0.72697544482922
C           25.31909063806528       -0.01961089677793       -0.06875981820879
C           25.95407725575908       -1.07579800349980        0.61208701047536
C           25.30966029625212       -2.16111984799493        1.26252190732926
C           26.27590338709954       -2.95613875539761        1.81420217559653
C           27.54124670791584       -2.37510293658634        1.52322889534193
C           28.80205608691827       -2.85987766204217        1.88676629363716
C           28.83068690651932       -4.08734855964432        2.71917681155237
C           29.45304539997203       -5.24599048659181        2.25218012466007
C           29.47744995587101       -6.39202798911638        3.03255874339324
C           28.88568473975404       -6.39483543123645        4.28843857165902
C           28.26586731030539       -5.24597148464014        4.76083894112832
C           28.23522190666540       -4.09934524364386        3.98148419431717
C           30.01944453762251       -2.27335229204070        1.52544754882297
C           31.32186306277400       -2.76367776024708        1.94888631831704
C           32.23761066272774       -1.94231053886319        1.39696556321338
C           31.49563962109332       -0.94276557472364        0.64899571312269
N           30.16329932000317       -1.16899762120973        0.75482056077723
N           27.29473074645239       -1.24613335783362        0.78709906275896
C           28.62964081805120        4.20463485691413       -2.76179300865553
C           29.18321728151235        5.38395771634457       -2.26198191743381
C           29.15088158209374        6.54788916330485       -3.01545985028765
C           28.57242799353651        6.54673028641046       -4.27738368035731
C           28.02301940761200        5.37628754249075       -4.78303177356988
C           28.04819551858941        4.21194360318028       -4.03033696643526
H           33.19625716432201        0.09305683663767       -0.05556746059493
H           33.22426960748837        2.24958825047839       -1.58348443384989
H           31.34295253611562        3.83434251088082       -2.63378542116915
H           29.43457277932409        0.74768897054486       -0.48024683349369
H           25.98571414503507        3.88698187797379       -2.41563634677601
H           24.14919877454874        2.21789425624786       -1.38006193197682
H           24.24218514992391       -2.30851919463308        1.29466409464375
H           26.12894418497765       -3.87041050062097        2.36569323873011
H           29.90371013685464       -5.25003748114199        1.26597714462639
H           29.95992041287605       -7.28785828324610        2.65756782292008
H           28.90758091189766       -7.29096622365447        4.89815943926275
H           27.80482441861517       -5.24154516920239        5.74235456781304
H           27.76321762277161       -3.19879997952175        4.35861366145471
H           31.48786937965312       -3.61360667627077        2.59111296243850
H           33.31277914394083       -1.97738054183165        1.47846718034707
H           28.01648227610861       -0.63226009198560        0.42399283248242
H           29.62333581784070        5.39019343901656       -1.27088145042602
H           29.57794514419034        7.46036048957984       -2.61418832101695
H           28.54951368806989        7.45684604518993       -4.86599901468570
H           27.57270487821873        5.36961839338677       -5.76947298860629
H           27.62867369819554        3.29575924724269       -4.43076307969004
C           21.34616228535831       -0.05823885112863       -0.09237653426828
C           20.11760273574886       -0.05873226367886       -0.09294297476677
C           18.77372821984433       -0.05681507446906       -0.08543389255153
C           17.54968855722462       -0.05473156371785       -0.07225341604285
C           22.69005917502680       -0.05387970990697       -0.08797777912254
C           23.91406734005833       -0.04049911675759       -0.07859142821220
