236
 energy: -428.264260387139 gnorm: 0.000553697495 xtb: 6.5.1 (b24c23e)
Ni          52.45609094888199        0.37314836944410       -0.17492198519057
C           49.32616615319139        1.54882515739532       -0.67049153944110
C           49.96405815431139        1.88335406862948        0.50730432588651
C           49.36088965811208        2.65319210758723        1.55213679706102
C           50.21903580109592        2.62497937993885        2.60083586383352
C           51.36391792341910        1.87911065740651        2.17667654192244
N           51.20099766899860        1.42831840089481        0.89734404604120
C           52.51714149629171        1.71901761009724        2.94941971046168
C           52.51544871174866        2.19413704838363        4.27840141488327
C           52.50944479526103        2.59640378259691        5.42310132176736
C           52.50941196129835        3.07350785836596        6.75396245911867
C           53.64637056079441        2.96469837748446        7.56322981387950
C           53.59633950072356        3.45012996355851        8.85776095059948
N           52.51335042220953        4.02091682987361        9.37918660377991
C           51.42853614077340        4.12814787010055        8.61627782693631
C           51.37448969228801        3.67488537311268        7.31020348926606
C           53.70204756422949        1.19966596241369        2.42282697099897
C           54.95770456691032        1.25024163344997        3.10220491650759
C           55.89424783664489        0.81666779428982        2.22171505435479
N           53.85754265203228        0.69653469614659        1.15739083332110
C           55.19983817017803        0.45739804746219        1.02683264154343
C           55.81555178851165       -0.12142844647217       -0.08627760655521
C           55.08491444796039       -0.68648163544615       -1.13561198615218
C           55.66294617343650       -1.51895459777561       -2.14218646675902
C           54.63438917827713       -2.02843153659291       -2.86540974690013
C           53.43686445254928       -1.46590567820629       -2.32751692625160
N           53.72167182892830       -0.64833294600777       -1.26538654243592
C           52.17120905236506       -1.66139517986218       -2.88591470148485
C           52.02817764696388       -2.59529546833343       -3.93415551641866
C           51.90145672188789       -3.41590497886317       -4.81896552198506
C           51.75891835493002       -4.37092446138201       -5.85167768131606
C           52.83917886273517       -5.15988929377110       -6.26384876992708
C           52.64760228538422       -6.08109861991965       -7.27816387660918
N           51.47888984417858       -6.25786290140559       -7.88901476295511
C           50.44701740777203       -5.51172504563724       -7.50289737313029
C           50.53289428367792       -4.56364656056507       -6.49899394257068
C           51.06494900047693       -0.89629084527043       -2.50803313808215
C           49.82700422425614       -0.87952807026467       -3.22510412543680
C           49.06288787124112        0.08798195348064       -2.66172242780651
C           49.81747081414989        0.62366087797123       -1.57013793234106
N           51.04735233723062        0.01643928913544       -1.49124019044058
H           48.34304969494003        1.96647949888275       -0.85418858851734
H           48.39333005093690        3.12436009806209        1.48358863652690
H           50.11203538669698        3.08010843073384        3.57245748217726
H           54.54967260436480        2.50715445661371        7.17815447302292
H           54.46370640775729        3.37890965296968        9.50775339855699
H           50.56293171061061        4.59912839634519        9.07316006865655
H           50.46991144613659        3.78276233268583        6.72402536149223
H           55.09421469386060        1.60090579113793        4.11252835969002
H           56.95907463222360        0.72551133757284        2.36315718432301
H           56.71877834828279       -1.70725305716898       -2.25124553793593
H           54.67075356754192       -2.70596320619601       -3.70325870166767
H           53.80855541167515       -5.04863159888728       -5.79326545139797
H           53.46814206047689       -6.70675674850796       -7.61749328128834
H           49.50838764797224       -5.68199548197994       -8.02230239899503
H           49.66700284239356       -3.97752344940144       -6.21571954714420
H           49.59947121754851       -1.51485288469024       -4.06613452545102
H           48.06856944079359        0.40603499440882       -2.93203196072995
Ni          84.77219775887183       -0.11316281967364        0.75744725869162
C           87.78318946852075        0.09704260569478        2.27771820731038
C           87.33482477876029       -1.15422404951632        1.90341610836907
C           88.09124226314904       -2.35807366770389        2.06611353368306
C           87.38823245120339       -3.34448763595200        1.45769940721422
C           86.18188533148168       -2.74982936153040        0.96994269257887
N           86.16102260531542       -1.40978638758961        1.23655502220435
C           85.13000289631700       -3.47668646502783        0.40660320152889
C           85.30949847034272       -4.85362233319076        0.15474541479261
C           85.46202353106608       -6.03457723233231       -0.07850462178249
C           85.63115118390768       -7.41288539382091       -0.34397974789650
C           84.57537986110302       -8.19010151863855       -0.83454361542731
C           84.78945806053794       -9.53539769497730       -1.07587410118624
N           85.95808690653992      -10.13530728332442       -0.86412032319858
C           86.96694579574223       -9.40314598070771       -0.39879290409558
C           86.85725271069913       -8.05149209146121       -0.12489268286447
C           83.87311381956283       -2.91132919811373        0.17772439116685
C           82.70949483717042       -3.67380764541291       -0.14538441858547
C           81.66660775610622       -2.80621357741916       -0.15735110493208
N           83.55648466869201       -1.58620691481911        0.32558721210052
C           82.20570858173856       -1.51112698817226        0.11115958146572
C           81.46298734560486       -0.32976853208287        0.02127542574650
C           82.06526728338356        0.93178038175643        0.01337456141937
C           81.38056974408661        2.13646692256407       -0.33167128218768
C           82.30946458983139        3.12514448715562       -0.34000872792221
C           83.54695083333630        2.52792676132131        0.05057327408552
N           83.39107941531387        1.18087738634553        0.25047550760456
C           84.70801798732400        3.25862068212955        0.31346478676040
C           84.71831217100014        4.64224321831742        0.03555556195451
C           84.73141896840369        5.82982532331919       -0.21285502497468
C           84.74642113290652        7.21554820389567       -0.49289225611118
C           83.67673287530717        7.83630688191266       -1.14828046848111
C           83.74036489583580        9.19620937138007       -1.39501476952095
N           84.77484170150547        9.95270591940036       -1.03757060824921
C           85.79585927063005        9.36996693214080       -0.41421222409141
C           85.83130957218594        8.01829262769374       -0.12153905381239
C           85.82205660559319        2.68992505493027        0.93668164390156
C           86.92069627195436        3.44853411657862        1.45084302419740
C           87.73914599009933        2.57171380332224        2.08214296138840
C           87.16208066573364        1.27360747408693        1.90878685890640
N           85.97681864985172        1.36229150507013        1.21880428449263
H           88.72414249610418        0.16278098430066        2.81154608550261
H           89.04669128564360       -2.41744394906466        2.56257369770813
H           87.63661057179013       -4.38935110848133        1.36137579793760
H           83.60684300375168       -7.74176139658275       -1.02040824243897
H           83.98773252458500      -10.16233417377282       -1.45551605355925
H           87.90624449135720       -9.92438079658691       -0.23793586016392
H           87.70489566613668       -7.49292917542909        0.25323418673760
H           82.70183831361700       -4.73834503893151       -0.31586605016489
H           80.62737522893252       -3.00863899029619       -0.35976423353377
H           80.32830201632233        2.20107940001261       -0.55652969406275
H           82.17696047531089        4.17204543106202       -0.56086669360267
H           82.81418309915409        7.25791579058196       -1.45631886123911
H           82.92469824331572        9.70379123773282       -1.90185962069233
H           86.62321768962806       10.01649018939181       -0.13675790760328
H           86.68295141377413        7.58446395925375        0.38847337749634
H           87.02464625830466        4.51727302168162        1.35235415276042
H           88.66522001611763        2.76494930648221        2.59972793226491
C           57.22075158936276       -0.22938122577858       -0.11037036278817
C           58.43264074135527       -0.31542022738892       -0.15291986460249
C           68.06561310402482       -0.66071636900218       -0.61014117065080
C           69.27897261230581       -0.69469401663202       -0.68112422552130
C           78.86908131011974       -0.51559558878905       -0.33658226522633
C           80.07071684600069       -0.42203942807101       -0.17616590536942
Ni          63.24114526546347       -0.65268354067338       -0.41593958900617
C           59.83619887787777       -0.42587970424819       -0.22577813559086
C           60.44090109682537       -0.37967254216508       -1.48444112205273
C           59.71262039013981       -0.26500927786456       -2.70750191344761
C           60.63104777650939       -0.15076321521271       -3.69858696175164
C           61.91393824005024       -0.18071828112114       -3.07193165978812
N           61.79069479310490       -0.35687795821381       -1.71763912027170
C           63.10754052798480        0.06995020506773       -3.74954970630150
C           63.05695617608271        0.33830822478076       -5.13482627715596
C           63.02128262516253        0.56837224872320       -6.32552350143281
C           62.97604293899965        0.83977606875293       -7.71245230566466
C           64.13523660543926        1.16801732612944       -8.42499474234599
C           64.03752338789765        1.42716138408529       -9.78053389850123
N           62.88806616542276        1.37974687699049      -10.44894718157014
C           61.78176416537615        1.06808539389889       -9.77871601312732
C           61.77117369142736        0.79230554006517       -8.42293936494852
C           64.34781387920009        0.09567917910857       -3.11015964544406
C           65.56827004743683        0.43316996545465       -3.76987250183305
C           66.56069628661000        0.25795810806524       -2.86278223527151
N           64.58012656584783       -0.25922542557380       -1.80659205161625
C           65.94146239576823       -0.19613553020077       -1.65871874467791
C           66.65717732294431       -0.65366724016730       -0.54962973166643
C           66.03182126580946       -1.15601606804212        0.59415748193986
C           66.74059721691751       -1.69803179303886        1.70905364960714
C           65.81364013282787       -1.99634597455397        2.65275828512157
C           64.54586218827158       -1.61961343929411        2.11367585224992
N           64.68371100863722       -1.13514591760851        0.83816254155795
C           63.36153831381124       -1.63265257920150        2.85139924910441
C           63.40301159467746       -2.07949919089746        4.19016445028264
C           63.43675465880462       -2.47356496170199        5.33714998959235
C           63.47302413603079       -2.93352795613660        6.67372063659155
C           62.34067614243408       -2.86788693807029        7.49380908372726
C           62.42743753424826       -3.33217632689801        8.79420099016969
N           63.54169900111659       -3.84390874655166        9.31087646436236
C           64.62221192542661       -3.91040586989950        8.53745950532413
C           64.64101099234814       -3.47273956428142        7.22503075789847
C           62.14153068400856       -1.19892924768827        2.32976497007931
C           60.93947730764847       -1.11583806083382        3.09623335219278
C           59.95691142379292       -0.74502223355020        2.23836256054664
C           60.56243788085505       -0.61821215755947        0.95118384717947
N           61.90965149679234       -0.86267924421950        1.02147793554511
H           58.63740784603117       -0.26709050703836       -2.78394529069579
H           60.46932233279440       -0.03771442440996       -4.75842242553960
H           65.09206666084442        1.21813029913962       -7.91941383191746
H           64.92056201939879        1.68487336137386      -10.35815963616189
H           60.86158023605923        1.03800250454209      -10.35511532129722
H           60.84685526542457        0.54285212373753       -7.91608673721037
H           65.64156986589519        0.75632201331256       -4.79572523587572
H           67.62113542491178        0.40107005173531       -2.99112771446117
H           67.81033019249773       -1.82292500561474        1.75389362667316
H           65.96177572164336       -2.41590376888642        3.63471613143483
H           61.41288953324202       -2.45840193321137        7.11291491593629
H           61.56471978597006       -3.29284674654671        9.45291376032090
H           65.51375521832178       -4.33401488320751        8.99073835216914
H           65.54341435578678       -3.54602004351082        6.63024467873258
H           60.87092246924603       -1.32056538371942        4.15248070201527
H           58.90986149433037       -0.58816796386875        2.44117578518688
Ni          74.09429228778990       -0.87410578991187       -0.92083338565255
C           70.68399892251952       -0.76032839870724       -0.77583452796742
C           71.34948718649717        0.17078533266520       -1.57730892353283
C           70.67883362899570        1.14844260913872       -2.37291041287217
C           71.63683308207786        1.80896726104061       -3.06932339890615
C           72.88981048252913        1.25658316906566       -2.66438378600978
N           72.70561366680802        0.24509908158463       -1.75765327888147
C           74.12233595305362        1.76777968315085       -3.07387237770742
C           74.14036272667761        2.80687120265026       -4.02942850861947
C           74.15818655038538        3.69249115247229       -4.85854423133611
C           74.17837036185524        4.72815318724548       -5.82084866854581
C           75.38365052184137        5.29117776541881       -6.25596055816075
C           75.34841735882441        6.30273275040805       -7.19926347250082
N           74.21768504963408        6.77334475620319       -7.71911798291054
C           73.06763711692719        6.24361428777053       -7.31024301211233
C           72.99349005645402        5.22896846391380       -6.37264714985460
C           75.33306373647372        1.34904909941600       -2.51939440535757
C           76.58069092289752        1.99446928154218       -2.77564643516241
C           77.50640041167512        1.36817180672904       -2.00765806535582
N           75.48971468924192        0.32511532117859       -1.62198415847083
C           76.82505532105678        0.32205197512237       -1.31436474455051
C           77.47947334583668       -0.63776933575573       -0.53817247831689
C           76.82812600403167       -1.76802563970435       -0.03705763257894
C           77.50692430096713       -2.85271423850016        0.59654229441361
C           76.56856489937796       -3.79216784616218        0.87232167894989
C           75.31663219489988       -3.25785561484998        0.44075265436611
N           75.48475098682074       -2.02140601726019       -0.12669449976174
C           74.09225774781588       -3.88600490055710        0.67453744028746
C           74.09297778385888       -5.16938416567295        1.26282837570898
C           74.09755401034420       -6.27514578486541        1.76213971510427
C           74.10600618217940       -7.55955408219390        2.35312830955339
C           72.91458522282613       -8.23339929242808        2.64528197103016
C           72.97951547588951       -9.48653909492213        3.22826851163301
N           74.12636270531098      -10.09049597125713        3.52856221047254
C           75.26344847457787       -9.45672812118978        3.25309430653870
C           75.30807784551911       -8.20231320446138        2.67130181090555
C           72.86739763848708       -3.26438245195210        0.42618552649527
C           71.61249344811776       -3.80533334516580        0.84004024498528
C           70.66651607557147       -2.89494088553205        0.50044381773284
C           71.34580839611908       -1.81987693668140       -0.14959167467391
N           72.69693252987179       -2.04636032053563       -0.17875943842403
H           69.61110914402003        1.29358496238796       -2.39559958025138
H           71.52164763080984        2.61343436089067       -3.77768711129530
H           76.32737177757798        4.93790805614854       -5.85828942971713
H           76.26832559092787        6.75761710433125       -7.55506553692570
H           72.16433131345880        6.65156675757875       -7.75464096834173
H           72.03529040588477        4.82611693570337       -6.06747115863526
H           76.71339225164165        2.82759257416015       -3.44683108318239
H           78.56208218434992        1.57064065055688       -1.92783787256808
H           78.56690143351831       -2.88465779101230        0.78929192878836
H           76.69493147799956       -4.75277593316640        1.34504075163292
H           71.95848340415101       -7.77777618216930        2.41766992301142
H           72.07091919805814      -10.03208856876389        3.46631922754404
H           76.18056525166703       -9.97831839732906        3.51125903705121
H           76.25648354377130       -7.72135801618476        2.46439402227151
H           71.48792402465382       -4.75315672961599        1.33835428103335
H           69.60018066614279       -2.94654382268912        0.64920594891359
