278
 energy: -565.300897111523 gnorm: 0.000853687766 xtb: 6.5.1 (b24c23e)
Fe          43.39040793108487        0.05077457840628        0.01210243224070
C           40.00672051889971        0.16351900777105        0.06395029328511
C           40.65662969331186       -0.30761874696970        1.18642583757092
C           39.98522627261913       -0.79659314763114        2.35286983670462
C           40.94309256670399       -1.04729834968142        3.27630729407463
C           42.19867525745943       -0.69544265109108        2.67751150224394
N           42.01255027129904       -0.28980067111630        1.38373874223256
C           43.41516120291030       -0.69365704755620        3.35128148929834
C           43.42853426128853       -1.04045313640897        4.79129870443147
C           42.71568384469195       -0.26734867133022        5.71112065468361
C           42.72572018399955       -0.59061319184488        7.05794520556119
C           43.45021600856727       -1.69698429516074        7.47096544800776
S           43.47006855720763       -2.11026295169836        9.17455507373791
O           43.17791437758194       -0.96361008454285        9.98371075721900
O           42.16974312359444       -3.08331090047240        9.19451475661069
O           44.62639326475627       -2.89478479549132        9.49240365700208
C           44.16922374204058       -2.48092345541167        6.58338785757467
C           44.15673901457756       -2.14531928603749        5.23968333213905
C           44.61818307173974       -0.37920700058333        2.73338172920305
C           45.87578968937429       -0.29461313783528        3.41503128269016
C           46.82049692877762       -0.08291904708769        2.46711372207834
N           44.79134494050930       -0.16459647791250        1.38752907458080
C           46.13800508033214       -0.03334635836729        1.21207830243390
C           46.79584041484904        0.01962249439854       -0.02214870772756
C           46.11202276629469        0.08091433155327       -1.24206691468180
C           46.76502743602161        0.08438504828822       -2.51341184580316
C           45.80398967517685        0.30384242294738       -3.44326111859050
C           44.56705060123988        0.44467162551537       -2.73379233015575
N           44.76723533225474        0.25726844326605       -1.38760832417327
C           43.36152552275873        0.79497343823039       -3.32703035408390
C           43.34966091012388        1.10667685733006       -4.77505269602917
C           42.57424302478878        0.34724010849394       -5.65465891853285
C           42.56128092039740        0.63631494020192       -7.00929539722067
C           43.32807144739941        1.69375707058303       -7.47093908194331
S           43.30433398807487        2.07609553679286       -9.18184713528320
O           43.65020412501769        3.44939678512547       -9.40608018231173
O           44.56631996998372        1.16554829302107       -9.64718202454079
O           42.11822528787665        1.55903266896943       -9.79686711396922
C           44.10228868319356        2.46871569548834       -6.62257042997662
C           44.11199092957461        2.16752812017525       -5.27079680384574
C           42.16613572874142        0.86873295410964       -2.62023150016993
C           40.91421406891335        1.27759435219170       -3.18995742427079
C           39.97233919670554        1.09909732373961       -2.23408345303142
C           40.64995013277616        0.59204878398356       -1.07882279054010
N           41.99773231851294        0.50269174142212       -1.31230239247527
H           38.92322617897096        0.19362411811911        0.07898096282815
H           38.91778298421595       -0.92511016818099        2.43549591421451
H           40.82295817177567       -1.43653770328848        4.27430779594542
H           42.16503201592117        0.60084931078581        5.36840996270941
H           42.18563253093502        0.00738891674197        7.78118048403547
H           41.97206763970184       -3.35982143222643       10.09756946406016
H           44.72956358789499       -3.33519601124706        6.94194908572355
H           44.70384129796282       -2.75098598872635        4.52670229576583
H           46.00818996929436       -0.38225763500456        4.48106778209387
H           47.88594859855297        0.02546117914177        2.59053156493018
H           47.82309789186259       -0.06135495992961       -2.65993645672680
H           45.91258942746800        0.36159482636680       -4.51403014233316
H           41.98972697188895       -0.48220307650158       -5.27411742605714
H           41.96378782701981        0.05478725821828       -7.70006108784255
H           44.80716533574717        1.37092353160450      -10.55873197455058
H           44.67982791510065        3.29578545789785       -7.01597527530489
H           44.70111604198154        2.76837550421705       -4.58786476754083
H           40.78591788008686        1.65381215278725       -4.19190547526506
H           38.91142698721971        1.28416391584277       -2.28861346143756
Fe          99.04544720947511        0.01263741866508       -0.01437985347842
C          102.43088061311350        0.16886260486414       -0.02416891663874
C          101.77843465676291        0.15514078456195       -1.23986595423073
C          102.44926369849030        0.14141230776808       -2.50477670594394
C          101.48990968936070        0.24483843925877       -3.45430419183567
C          100.23398141331442        0.33616325189397       -2.76660305969892
N          100.42199443753746        0.24158525297657       -1.41397107665000
C           99.01412000385140        0.56102509785419       -3.39376229847020
C           99.00087625889999        0.76272931722885       -4.86157686382439
C           99.68276543303325        1.84138737857386       -5.43017062374375
C           99.67652433653541        2.03222579086408       -6.80203773415335
C           98.98745291990301        1.12960288915331       -7.59572346486383
S           98.97585919918951        1.36521117473283       -9.33292983303157
O           99.22483791340203        2.73723731120596       -9.66478343778900
O          100.30879570345962        0.50959919905074       -9.69273479363413
O           97.84732745305246        0.71176722543519       -9.92728875599961
C           98.29929664740057        0.05267993284977       -7.06096682317778
C           98.30725933828489       -0.12531354180208       -5.68732994058158
C           97.80869251607652        0.60387596385480       -2.70606906279849
C           96.54581873107269        0.89223242427560       -3.31835863923877
C           95.60218522438325        0.73582025249169       -2.35912949134664
N           97.63991567186903        0.33071955122888       -1.37011176774905
C           96.29070564680264        0.36085030298655       -1.16386043456529
C           95.63692525458504       -0.00860041055523        0.01578639639163
C           96.32166679397042       -0.35774191003974        1.18444977061903
C           95.66853574294947       -0.78876691444366        2.38031479684876
C           96.63169274378585       -0.91630406681765        3.32476052923817
C           97.87010193264925       -0.55182514848203        2.70351423212578
N           97.66803852189885       -0.24781549006399        1.37916410036622
C           99.08152455513422       -0.46060624467994        3.37601645378682
C           99.09880282524342       -0.69792782246615        4.83842633393209
C           99.84741656557104       -1.74927627954139        5.37306527956422
C           99.86739453240594       -1.97398712153964        6.73975910152990
C           99.13472714477052       -1.13398313135111        7.56247837224636
S           99.17052162008943       -1.40068739110235        9.29504453939241
O           98.86854406592794       -0.19333363824356       10.00707039811808
O           97.88038300063049       -2.38004290572673        9.41349663895302
O          100.34013682599698       -2.14039652071991        9.66550994609711
C           98.38706320362222       -0.08018717257976        7.06230872154269
C           98.36976182148081        0.13204438516087        5.69372075145363
C          100.27863446753119       -0.15786239713792        2.73790273171441
C          101.53628274996230       -0.00947010125988        3.41275285800106
C          102.47568925687975        0.16835882785725        2.45474289932103
C          101.79106332101783        0.13826040915827        1.19730369935010
N          100.44144682206822       -0.01136688689789        1.38638744666395
H          103.51444988802125        0.19947130759795       -0.02930326817248
H          103.51724374233709        0.06053986691423       -2.62986566132349
H          101.60871768968036        0.25591050636319       -4.52560785601933
H          100.20679509616197        2.54130201565646       -4.78989810422626
H          100.19287352277792        2.87027474741803       -7.25305426404974
H          100.49456439386918        0.56090252298540      -10.63819593619708
H           97.76613781205836       -0.62974895632676       -7.71087785551931
H           97.78419977704745       -0.96705520675416       -5.24874630819059
H           96.40935089187791        1.17882859233315       -4.34830854958933
H           94.53382653406078        0.85525537933873       -2.43940555702022
H           94.60910161205425       -0.96675141972523        2.47034912569366
H           96.52396250105835       -1.23419017312991        4.34895573601296
H          100.40583611004580       -2.40031971202938        4.71066553147543
H          100.44464104824709       -2.78518525423884        7.16528881310984
H           97.63922011242974       -2.50199307359891       10.33983776936601
H           97.83586486875747        0.56415360123410        7.73564664291836
H           97.80105285082324        0.95774113682931        5.28232590625444
H          101.66946657832904       -0.03688731640903        4.48203139880053
H          103.53932601012427        0.30424318144256        2.56852301986195
C           48.19739425013245        0.00445774357879       -0.03683287077299
C           49.42314436325227       -0.00657905495739       -0.04694591085756
C           50.76348483648293       -0.01608529863876       -0.05381388724714
C           51.99566935974146       -0.02394879744711       -0.05924707917573
C           53.33096142400867       -0.03006891292718       -0.05957392089200
C           54.56339696922595       -0.02808518203279       -0.05957632167207
C           55.90326167635054       -0.02854320878044       -0.05745655133284
C           57.12956603549452       -0.02713728736678       -0.05493510547910
C           66.74538549972029       -0.04062954233152       -0.00657239500402
C           67.97235045230670       -0.04361671036047       -0.00105057008078
C           69.31048182709797       -0.04582921117142        0.00365388425948
C           70.54382281425572       -0.04619662335690        0.00639525216206
C           71.87719552436461       -0.04818713670477        0.00711002633905
C           73.11051414570404       -0.04665581919893        0.00820787988598
C           74.44873074540395       -0.04634390081380        0.00482845419117
C           75.67565821807555       -0.04417534538011        0.00196364288909
C           85.30030650666455       -0.07771531381227        0.02703893102483
C           86.52563754141521       -0.08441464867302        0.03343515855210
C           87.86716833647407       -0.08845643209485        0.04025960178837
C           89.09854887300560       -0.08709321766288        0.03490355530855
C           90.43557174416324       -0.08050150048854        0.03690099432022
C           91.66675366950888       -0.06852992957204        0.03376752244452
C           93.00872613171748       -0.05282355883381        0.03046944227467
C           94.23349863978035       -0.03523218859746        0.02508420023096
Fe          61.93826692987140       -0.02818742039850       -0.03878608592902
C           58.52974003830505       -0.02569821924587       -0.05198149237397
C           59.20045728000655        0.90505086180481        0.75219869488743
C           58.53395086329716        1.84248699430538        1.60030265528491
C           59.48711515855722        2.68042254459379        2.07686291025120
C           60.73120896535785        2.25398438631415        1.50957728785237
N           60.54483856421619        1.13219704711271        0.74075109917392
C           61.93341915709620        2.93676067625347        1.65405001712776
C           61.93106087751308        4.22507567476996        2.38509078699281
C           62.69309811238772        4.37681709408952        3.54606819392757
C           62.69704949117960        5.58045663031908        4.23159448661368
C           61.93579413837015        6.62809630672093        3.73976030646105
S           61.95150235570357        8.16085463796483        4.59199304923506
O           61.62826128471502        9.24331171417036        3.70926350322526
O           60.66904585353901        7.91027496226904        5.55617766883683
O           63.12383346086774        8.26843201105589        5.40789973630110
C           61.17421765517910        6.50944099159358        2.58849258741419
C           61.17205763028625        5.29941906647084        1.91442369155721
C           63.13805896784795        2.46631463354752        1.14672904107678
C           64.38264554670484        3.17015817709930        1.23565863002105
C           65.33943886029452        2.32997820000791        0.77091448812658
N           63.32881649899117        1.23189729315683        0.57560468700027
C           64.67424473456346        1.12392534752588        0.38980195182697
C           65.34700193321855       -0.03690335182301       -0.01562398167391
C           64.67360389811880       -1.19325291538431       -0.43273147927161
C           65.33740393159758       -2.40191775755975       -0.80776273209920
C           64.38324278721802       -3.23383998751784       -1.29247893030638
C           63.14173243124514       -2.52279499418327       -1.22050062956093
N           63.33075840373908       -1.29203410680316       -0.64114628416065
C           61.94171673116719       -2.98476933867562       -1.74652275931909
C           61.94322594425514       -4.26927627497876       -2.48396681388520
C           62.72339619202532       -4.42034767463349       -3.63293340675961
C           62.73088134427508       -5.62053249604358       -4.32448719418100
C           61.95465603522395       -6.66553233397291       -3.85084533412421
S           61.97361543267138       -8.19406629152006       -4.71045290599680
O           61.64323510400215       -9.28035505980585       -3.83507901137117
O           60.69742019611185       -7.93709938040590       -5.68140548843763
O           63.15080865202281       -8.29964984341226       -5.51963674504355
C           61.17516002704563       -6.54769378210508       -2.71152807229844
C           61.16992955619870       -5.34121900300787       -2.03126224082379
C           60.74027281589997       -2.29880552888808       -1.61107746630295
C           59.49994258915769       -2.72005563985470       -2.19036627844918
C           58.54383013461821       -1.88566803861736       -1.71340755270729
C           59.20521729610840       -0.95408982662121       -0.85502952487208
N           60.54938896788525       -1.18124815724806       -0.83694258190777
H           57.47315678547979        1.85018248549687        1.79201957466048
H           59.36820802675104        3.51148480002249        2.75274778755952
H           63.27438493659692        3.54134395416880        3.91823135725577
H           63.28427896586444        5.70985127355987        5.13199912369185
H           60.40316424571131        8.73625117614168        5.97848872603311
H           60.60051653179780        7.35307714420435        2.22580780678076
H           60.59275171176848        5.18841507976500        1.00528990665046
H           64.49990719404491        4.17615881503450        1.60406828993001
H           66.40129876997042        2.49729210738063        0.69010175996053
H           66.39664715118982       -2.57652569159233       -0.70993102141470
H           64.50052243803684       -4.23895232709849       -1.66329819418789
H           63.31617484252538       -3.58690476528553       -3.99125111798604
H           63.33210921006908       -5.74922869858546       -5.21568969984198
H           60.43455812137557       -8.76048214409943       -6.11059969124075
H           60.59010554432015       -7.38933318174151       -2.36263688175408
H           60.57688442649560       -5.23131400264997       -1.13091289830088
H           59.38497866045892       -3.54579067867665       -2.87341760024441
H           57.48430602887402       -1.89162638100483       -1.91208976694968
Fe          80.48658273264301       -0.04963036913541       -0.00551606232456
C           77.07436312934836       -0.04332499395102       -0.00329429992823
C           77.74891741781356        0.93522140206051        0.73883668326477
C           77.08236697956957        1.91630933405726        1.53627993549943
C           78.03894237149358        2.76288197207544        1.98882487804767
C           79.28527678631090        2.29846906382837        1.45650916974232
N           79.09457249290536        1.14879243903733        0.72923760738938
C           80.49388069837512        2.96623312320927        1.60205089599277
C           80.49818894648793        4.26854339601423        2.30882547237416
C           81.22749414355951        4.42329413816675        3.49016545194214
C           81.22736377472538        5.63448252807470        4.16224533184377
C           80.49569945055077        6.68655365615387        3.63610791597943
S           80.49896320906440        8.22538919698930        4.47740998768046
O           80.21063892186949        9.30406747470622        3.57825716211824
O           79.18725627111681        7.98919657414079        5.40496590960559
O           81.64708467607981        8.33026427756596        5.32754809053353
C           79.77044442031728        6.56612653339892        2.46183992603121
C           79.77194022216500        5.34858111640616        1.80128149531512
C           81.70016972991996        2.46695324741304        1.12471822958468
C           82.95012516571352        3.16008892528570        1.21754260344768
C           83.90350617450638        2.30499332777209        0.77392363095689
N           81.88376911661915        1.22219619273530        0.57630033530652
C           83.23131788039868        1.09976940830449        0.40272605236498
C           83.89811252877919       -0.06864852978133        0.01582274141332
C           83.22224307011169       -1.22595751099721       -0.38807040465141
C           83.88496048559635       -2.43546358061268       -0.76230205245034
C           82.92899789188662       -3.27044556194913       -1.23767211250848
C           81.68669484951670       -2.56235856077979       -1.15692414093615
N           81.87660601263319       -1.32759008441250       -0.58894671343808
C           80.48073533320462       -3.04299917577492       -1.65448625106446
C           80.48254904958912       -4.33307473551394       -2.38308824730822
C           81.22609215595921       -4.47318233571088       -3.55741752952319
C           81.22566549662743       -5.67247825899898       -4.25045668710309
C           80.47915083274621       -6.72773150354539       -3.75235001037548
S           80.48284322477960       -8.25235565836406       -4.61903532062778
O           80.18077293715636       -9.34386917395877       -3.74009546109218
O           79.18166866468303       -7.99404671167395       -5.55543324474857
O           81.63844140908083       -8.34964136296613       -5.46003609825863
C           79.73962801779167       -6.62199158011686       -2.58557867578483
C           79.74193224536698       -5.41626330649598       -1.90373464226741
C           79.27541278951001       -2.37103138806456       -1.50217125937610
C           78.02606367420434       -2.82541379515131       -2.03619043017458
C           77.07220308135614       -1.98718064731131       -1.56291088209593
C           77.74387546798046       -1.01793540093716       -0.75541505892186
N           79.08943946669615       -1.23119774866094       -0.75782101485435
H           76.01966205471915        1.94288162768021        1.71527740049373
H           77.92098636675955        3.62299036562621        2.62745011404196
H           81.78469622955514        3.58390617118671        3.88938978336458
H           81.78749207724955        5.76572888023748        5.07949548200184
H           78.92240294291813        8.81498145507257        5.82809945352682
H           79.22021029082265        7.41345972169410        2.07236714860826
H           79.21922895035082        5.23512647057128        0.87603284132076
H           83.07232659450649        4.16985648195280        1.57383176341433
H           84.96765146576598        2.46117339605024        0.70153740317846
H           84.94528762797438       -2.60734051624127       -0.67180241529673
H           83.04459294368925       -4.27649708301314       -1.60647685565008
H           81.79507063281881       -3.63147853220280       -3.93450458716659
H           81.79698854407408       -5.79222705873833       -5.16235249317600
H           78.92883958312927       -8.80735091974638       -6.00909099164293
H           79.17806786719341       -7.47166660485999       -2.21805713349784
H           79.17894022775637       -5.31509113622973       -0.98328035470783
H           77.90383306653101       -3.67455235255311       -2.68851697383615
H           76.00844707236382       -2.01091499360499       -1.73593551531136
