130
 energy: -215.114290836453 gnorm: 0.000467208441 xtb: 6.5.1 (b24c23e)
C            9.50389149509828       -0.09286837186120        0.08183623584597
C           10.11686924789330       -0.97294445600101        0.96484002216504
C            9.46887626367005       -1.89148687821268        1.83694788766622
C           10.43372799037941       -2.55650433964716        2.54086980282153
C           11.70187472650409       -2.05685904274480        2.12997391758344
N           11.46020722158949       -1.11391552672838        1.17127156781786
C           12.96662521416990       -2.44526705574420        2.58918520877227
C           13.00613461935965       -3.46104423208044        3.66699285488703
C           13.67350085215617       -4.67392556034279        3.47703894168863
C           13.71571010045278       -5.62562550127165        4.48004247548652
C           13.09995149846807       -5.37666023987820        5.70941642549375
N           13.10955875402678       -6.34049066580187        6.70257730618537
C           12.42442521996763       -4.16936035313281        5.90529661709525
C           12.37893352792125       -3.22692497205287        4.89324391623473
C           14.17746431494677       -1.94246529894230        2.10566018919091
C           15.47639809834779       -2.30095206501290        2.64526841493094
C           16.39208051626162       -1.62505284826513        1.92028802168476
N           14.32562181295327       -1.04751278719043        1.08958997719885
C           15.65091580001340       -0.84683459315311        0.94747214408664
C           16.28355238429028       -0.01682564094189       -0.00149133521503
C           15.64418098681529        0.81247771242790       -0.94308677801788
C           16.28505415839829        1.61996478497119       -1.91909465493673
C           15.31590756037142        2.28262914230463       -2.62083439020997
C           14.05242642241947        1.90707278714415       -2.08685636039080
N           14.30297794220247        1.00859459317109       -1.08272242061723
C           12.78909745148206        2.34173516009204       -2.50414081558107
C           12.75116279012037        3.35609734971498       -3.58236811054215
C           12.08068312255299        3.09809348597834       -4.78096711063122
C           12.04530097077227        4.04160075664188       -5.79203579556917
C           12.67143493969526        5.27878836255801       -5.61941145209228
N           12.67134352718449        6.20999433234641       -6.64304885341408
C           13.34820446203252        5.54336116747282       -4.42591219955345
C           13.38663011003348        4.59052202298470       -3.42365146057373
C           11.57636863387236        1.88553116420263       -1.97355424370489
C           10.27002025603198        2.38862657252195       -2.36791971905553
C            9.36117670038281        1.70143974743971       -1.64634992712006
C           10.11137423870037        0.78957050883172       -0.80179818805769
N           11.44205266690643        0.93575031525686       -1.01795978726397
H            8.41846304899447       -0.10191689634873        0.09144958538559
H            8.40048328380317       -2.02282758672026        1.90262763280806
H           10.28518136484444       -3.33307868881849        3.27354155303167
H           12.18398155021381       -0.59936561622615        0.68065798550374
H           14.14672637342163       -4.87806331072018        2.52285473853110
H           14.22852500749065       -6.56718746555813        4.31667168375176
H           12.95425822290717       -5.99261381433159        7.63524199596857
H           13.85903865211352       -7.01071548889563        6.63781767791194
H           11.94119886703931       -3.97179561707920        6.85594983088657
H           11.87119659280700       -2.28340374101850        5.06188117110922
H           15.64387363084045       -2.96546896972961        3.47736575759148
H           17.46560707108408       -1.62812800412259        2.02164615718811
H           17.35208618118755        1.67489187681053       -2.06325571571667
H           15.46096134229961        2.96244068161959       -3.44449174360427
H           13.58267818145025        0.55094729482034       -0.53374624879516
H           11.60160829732786        2.13628628329192       -4.92763061758575
H           11.53115442252707        3.82475421771440       -6.72199529018789
H           11.92259195240099        6.11073641622898       -7.30978038337061
H           12.83681176357582        7.16099113457336       -6.35462837803960
H           13.83889506782811        6.50052193995274       -4.28697590220194
H           13.89612526238434        4.81256304629136       -2.49223639321757
H           10.09596934280082        3.17218214411633       -3.08784409198670
H            8.28584895893541        1.78901546030081       -1.65500094737112
C           34.80416912597192        0.05423696859398       -0.11292888942052
C           34.19076366581012        0.70622496138656       -1.17529188572116
C           34.83825250458690        1.33626197562188       -2.27435991717238
C           33.87333173776980        1.86953809323165       -3.08260495765790
C           32.60570570641326        1.59284239794063       -2.49674611535954
N           32.84759117403740        0.87897463981309       -1.35722764458387
C           31.34112814929979        1.95815511974774       -2.97530246729510
C           31.30182549876680        2.77652905556793       -4.20952393834295
C           30.62210840722331        2.32311433273535       -5.34311103664705
C           30.58054666077378        3.08391973855352       -6.49765523289313
C           31.20982922700270        4.33083597950440       -6.53901997376956
N           31.20123038225173        5.07871257141456       -7.70350277207599
C           31.89761333466313        4.78877798158018       -5.41230667227712
C           31.94197783965669        4.01719826970569       -4.26465856929669
C           30.13077333041050        1.60893321205086       -2.37034967371780
C           28.83220631278495        2.06052755506041       -2.83579019331065
C           27.91700782477086        1.51024603789790       -2.01080860008151
N           29.98306416241601        0.82198595759847       -1.26838255666072
C           28.65823075620673        0.73386007049336       -1.03655305881534
C           28.02587050781095       -0.00420740585243       -0.01427429679895
C           28.66579956838815       -0.73623313524778        1.00454302034003
C           28.02522419252486       -1.50782013213340        2.00929968306441
C           28.99438603521626       -2.03975183625018        2.81468850785011
C           30.25747018517417       -1.59967567799034        2.33156828795661
N           30.00682264210032       -0.82497850775758        1.22910339741406
C           31.52069864880029       -1.90101236560162        2.85385005661343
C           31.55876745998984       -2.71714389242715        4.08863868917606
C           32.24172318553634       -3.93602538785897        4.11734350981362
C           32.27733370227913       -4.70319995918457        5.26789616836900
C           31.63814744936417       -4.25821388654613        6.42799895404320
N           31.63810262929204       -5.04110671569375        7.56898714585287
C           30.94884774739717       -3.04298544165223        6.40692193840491
C           30.91092739276457       -2.28622138999979        5.24946403082139
C           32.73302639512383       -1.48446680628740        2.29050585383827
C           34.03932551013310       -1.74543888053332        2.87411554121395
C           34.94769374803710       -1.20216805026569        2.03824605197545
C           34.19719502262805       -0.59713034471702        0.95284285347544
N           32.86676262729561       -0.77642909562371        1.14417401000384
H           35.88959474927648        0.06082753798645       -0.12486052669519
H           35.90634683837133        1.36446184771590       -2.42067637225537
H           34.02144559556207        2.39917091785722       -4.00968057607635
H           32.12394715808173        0.52520100560846       -0.74039287286941
H           30.13871270678461        1.35257456064263       -5.32200687126055
H           30.05788432844037        2.71639960617841       -7.37397058679589
H           31.36919791604822        6.06412405329897       -7.57807674243794
H           30.44502640528137        4.87218939535452       -8.33641316045631
H           32.39123729200458        5.75411164790769       -5.43931659281006
H           32.45918919531352        4.39072260581486       -3.38749492067886
H           28.66458821811930        2.72281464072822       -3.66963753509177
H           26.84389095242468        1.61346504362581       -2.03255143459882
H           26.95844363439226       -1.63936155404935        2.09311732875463
H           28.84941065307418       -2.69053308086613        3.66146340073931
H           30.72706711657837       -0.39100422316704        0.66117884387210
H           32.73047898916285       -4.29460126942190        3.21811358760185
H           32.80168890880238       -5.65249892518213        5.27387462350311
H           32.39388397461206       -5.70422028842617        7.63150002287202
H           31.45916816166849       -4.54475274001771        8.42713012121164
H           30.44795750504536       -2.69351485233175        7.30317114133974
H           30.39183954847031       -1.33384483335816        5.24871021748366
H           34.21378771059064       -2.26061711027115        3.80507985753896
H           36.02282714513091       -1.18655794744406        2.12714932060092
C           17.68813084095384       -0.00743545427474       -0.01615837051590
C           18.91320876959393       -0.00456001025741       -0.02205073979850
C           20.25516551779976       -0.00600263179376       -0.02054328801522
C           21.48620030044847       -0.01483990769786       -0.01122999854225
C           22.82341609258056       -0.01809359310232       -0.00401685946875
C           24.05442707135835       -0.02325797303380        0.00478568300613
C           25.39634869017697       -0.02151949245017        0.00524662898514
C           26.62137252603540       -0.01645181574405       -0.00016395922213
