378
 energy: -631.509201203512 gnorm: 0.000696126527 xtb: 6.5.1 (b24c23e)
C           55.33959862162429       -0.08927244275320        0.01401135947591
C           55.95638350745984       -1.16300192904266        0.64323905670704
C           55.31296723089645       -2.27814566576827        1.24986514923232
C           56.28087337705156       -3.09666419296675        1.76033303871333
C           57.54685879598208       -2.50320669930154        1.48986627738838
N           57.30046409725099       -1.34577409873061        0.80744031101997
C           58.81285436503568       -2.99584820060248        1.82616719474462
C           60.02363530570704       -2.38470116459231        1.49350446339334
C           61.32383259225374       -2.88658457987582        1.90080721506568
C           62.23880575467763       -2.03750353270044        1.38921877986451
N           60.17063822276848       -1.24164036795704        0.76796248095904
C           61.49610201580371       -1.01307133963711        0.68059057266119
C           62.12597807164313        0.05330542194540        0.00683929743777
C           61.48372383903279        1.11248477390733       -0.66181504011818
C           62.12151389145193        2.17361725139908       -1.35767960059580
C           61.14928067912670        2.99569897632416       -1.85608567274202
C           59.88647530680743        2.46479084954922       -1.47242968225620
C           58.62152194812758        2.97798686123887       -1.77620707335706
C           58.58226105297992        4.24823644949215       -2.54132014090226
C           57.98113006457031        4.29737979514549       -3.79991566186418
C           57.94932364546473        5.48454455556323       -4.51583793085666
C           58.51187152713926        6.63666391475298       -3.98334453607369
C           59.10950505319926        6.59662774241206       -2.73096396703353
C           59.14799967495218        5.41010853538815       -2.01412936187999
C           57.40899092000795        2.38171820576492       -1.41404060462016
C           56.10062293416355        2.95206391343591       -1.69480964004082
C           55.19254540532148        2.08922106409700       -1.19612709080628
C           55.94492047495959        0.99883376308494       -0.60089469803493
N           57.27596999014433        1.21286582147371       -0.74352576391000
N           60.14100973441577        1.32271880822958       -0.75948641688726
C           58.85206420231300       -4.26440205454185        2.59521418822738
C           58.26637254988145       -4.34390667328060        3.85939274860911
C           58.30653758340144       -5.52967834948508        4.57751604526555
C           58.92580437003845       -6.65026664228530        4.04091958467150
C           59.50781706930002       -6.58005377034691        2.78246226840961
C           59.47405893430150       -5.39484384617098        2.06339455486178
H           54.25440716936234       -0.11022970807881        0.00924234004922
H           54.24518555833972       -2.42587020459379        1.27981794630022
H           56.13726514951058       -4.03426503239398        2.27244761094421
H           58.02114086101496       -0.71701224477009        0.46902193468749
H           61.49126377170039       -3.76196858240690        2.50710902538161
H           63.31293638630792       -2.07311696724412        1.47652313864441
H           63.18896592140546        2.28219498254149       -1.46266453689831
H           61.29052774412663        3.88619482578151       -2.44656940930435
H           57.55342587058813        3.39540261779302       -4.22325675758686
H           57.48431474661218        5.50971197169271       -5.49513247509871
H           58.48456888712727        7.56441576986393       -4.54351766120314
H           59.54731588869889        7.49442987647875       -2.30883215347862
H           59.60297990098280        5.38442958397035       -1.03009454346824
H           55.92629034218773        3.89142251194075       -2.19442358173216
H           54.11613224306321        2.16031992817674       -1.20648768558081
H           59.42278186999890        0.72024220128555       -0.37116733507987
H           57.79486991641961       -3.46575390408994        4.28665648138469
H           57.85354529346223       -5.57803993276402        5.56158607197458
H           58.95509937571514       -7.57688092968177        4.60287908883684
H           59.99022918434854       -7.45335323918607        2.35762132896950
H           59.91821224633011       -5.34512621854220        1.07549470677099
C          154.99816894693740        0.06328956870735       -0.07028448712024
C          154.37568008070616        1.08822329913659       -0.77119776261924
C          155.01323998684600        2.11898954429466       -1.51722874943295
C          154.04070977427176        2.92618051002740       -2.03690917101272
C          152.77762935951736        2.41984435948441       -1.61707944537500
N          153.03032663275459        1.30707085238247       -0.86611841167968
C          151.50870117245682        2.92994616467312       -1.91394081934845
C          150.30143137405040        2.36053096512757       -1.50354502589758
C          148.99833937521123        2.94116908958375       -1.77368222401745
C          148.08801476945351        2.10700362795601       -1.23024618316597
N          150.16079732855232        1.20871121375535       -0.79067478388846
C          148.83645139552161        1.02461845754611       -0.62073972711650
C          148.21223041303691       -0.05484318296477        0.03753417327300
C          148.86045594528872       -1.11778102627138        0.69430511617540
C          148.22928871392460       -2.21344894372892        1.34082901038158
C          149.20609520015856       -3.01039953805959        1.87031021861425
C          150.46505195703136       -2.42051825876123        1.56900348160492
C          151.73266134543724       -2.90248089963769        1.91079974774839
C          151.77881865705348       -4.13880730732282        2.72913288542451
C          152.39891449911096       -5.28926941418395        2.23948270007020
C          152.43817556674287       -6.44461206940434        3.00537590085626
C          151.86417100770134       -6.46472396726275        4.26930095406166
C          151.24730191605892       -5.32386317030101        4.76442159354410
C          151.20136605666039       -4.16807978667055        3.99947109651701
C          152.94179346782255       -2.30586161032738        1.53790892851736
C          154.25254299741158       -2.79148813253525        1.94051765264630
C          155.15604442266456       -1.96232931260212        1.38018526263974
C          154.39838779610020       -0.96380660737894        0.64657110229717
N          153.06873993012925       -1.19682218419412        0.77143051009097
N          150.20393128391598       -1.28436586304205        0.84908604847728
C          151.46140927811228        4.17053808351443       -2.72676941199973
C          152.04425471917281        5.34809434031341       -2.25653633898068
C          151.99595628630266        6.50673531646854       -3.01720195197067
C          151.37133258480941        6.50256959737586       -4.25694858083962
C          150.79203725376300        5.33420142512918       -4.73311382398038
C          150.83388149485916        4.17496380454727       -3.97333182198673
H          156.08334883951099        0.07603187862108       -0.08820193656796
H          156.08049065440085        2.21569254079208       -1.63764258918538
H          154.17938306279976        3.79241811147174       -2.66331353645711
H          152.31294685953208        0.72706530925820       -0.44397657651792
H          148.82599924124477        3.86816030004386       -2.29609713620537
H          147.01358715312907        2.19723027934287       -1.22127262829595
H          147.16295971931845       -2.36588130435376        1.38552620068594
H          149.07054782612667       -3.93143441116440        2.41339592422871
H          152.83573507150237       -5.27960164777919        1.24711099710697
H          152.91818484287830       -7.33413160242535        2.61264992323606
H          151.89753990963735       -7.36813517846174        4.86763065690975
H          150.80037895879772       -5.33301501697166        5.75239692712432
H          150.73142642339974       -3.27390134698555        4.39393018461918
H          154.43143922370967       -3.64402355533224        2.57579065425165
H          156.23242326863388       -1.99197338656436        1.44620117660057
H          150.91839349920448       -0.66441584670772        0.48190314775412
H          152.51978609554246        5.35750586903247       -1.28196146539833
H          152.44673972470264        7.41757486210561       -2.63892113762278
H          151.33567627530857        7.40871826085506       -4.85099591509537
H          150.30538478995061        5.32493690259329       -5.70210735889949
H          150.39171511143664        3.26017164425284       -4.35194059789714
C           63.53128675173987        0.07250010781720       -0.00617822768893
C           64.75569509073722        0.08607281576951       -0.02227135805749
C           66.09806618739336        0.09467832075583       -0.03566075383195
C           67.32866656932423        0.09829992977308       -0.04847172325695
C           68.66625139149338        0.09772501077169       -0.06045996560391
C           69.89693727748632        0.09227318668274       -0.07072114674616
C           71.23911892604619        0.08695609127878       -0.07534514175219
C           72.46385726948213        0.07675821301601       -0.07908993586711
C           82.12005693443210       -0.04235218157473        0.07388355767296
C           83.34503816767291       -0.05321959600280        0.09328753000335
C           84.68604651366743       -0.05765676159692        0.10856129479724
C           85.91725730547032       -0.05631694700290        0.11548482008396
C           87.25365531756373       -0.04805733983850        0.11523736881912
C           88.48480253798769       -0.03944734661402        0.10493971938726
C           89.82576634121830       -0.03146247054959        0.09184593462367
C           91.05080304752761       -0.02430412533277        0.07356833815836
C          100.70360080488194       -0.03741089953279        0.03924167510180
C          101.92870253834965       -0.04292354189878        0.05270484411571
C          103.26961307917708       -0.04208134259734        0.06507250538044
C          104.50080669492272       -0.03839296015746        0.07235140414243
C          105.83710734306817       -0.03198142918794        0.07512951512779
C          107.06829059647187       -0.02512713116242        0.07128244890427
C          108.40916277925049       -0.01378657883232        0.06224663110869
C          109.63428217507190       -0.00847639686643        0.04998779516076
C          119.28725229095178       -0.03216279006636        0.06079137422497
C          120.51229891933360       -0.03870117268566        0.07851102604475
C          121.85328853000443       -0.04178286176179        0.09202027893621
C          123.08448640743744       -0.04011075232932        0.10179475795104
C          124.42088628928252       -0.03561859451481        0.10549165210237
C          125.65209975947536       -0.03243601241032        0.10144729282006
C          126.99310024904929       -0.02629444368578        0.08802935057556
C          128.21812481062773       -0.02500826675755        0.06819214211237
C          137.87491599020262       -0.07920220436034       -0.02155211313570
C          139.09954162602060       -0.09705634857424       -0.00778453936022
C          140.44153452016536       -0.10855072210369        0.00449276500803
C          141.67220382641190       -0.11623979141823        0.02062508238006
C          143.00969105677865       -0.11712062915864        0.03289328512623
C          144.24034921433019       -0.11289571345290        0.04232666420415
C          145.58264369847140       -0.10085920618744        0.04662877196985
C          146.80717911215638       -0.08235681785550        0.04592346197676
C           73.86829436769227        0.06646288535424       -0.07294758926137
C           74.49884158200015        1.21836181496129        0.43586436672077
C           73.85268503242807        2.37027137938614        0.95447068729993
C           74.81994775330938        3.26323220001910        1.32726570327599
C           76.08548994983805        2.68369138062391        1.03984824211565
N           75.84048039778291        1.44468492952713        0.51072729986406
C           77.34688198232080        3.24745003346447        1.26629324277412
C           78.56858188118051        2.62127959803130        1.01722135485409
C           79.85902447389684        3.25642884681619        1.21538082233540
C           80.79125195330175        2.34143647783814        0.87816537999300
N           78.73836571204735        1.35351910445210        0.54890014896365
C           80.06854585167856        1.15464710093282        0.46498275220380
C           80.71722353059533       -0.02479449791256        0.04517271547162
C           80.08538222372530       -1.19705765385838       -0.41371828214435
C           80.72895188066452       -2.39490889221802       -0.81872398889947
C           79.76216453198714       -3.27896965792324       -1.21340973482309
C           78.49990014582846       -2.64202242174485       -1.06744107038025
C           77.24015396487906       -3.18141514966485       -1.35369209241176
C           77.22324219994923       -4.55092633955090       -1.92609212678911
C           77.83247311857806       -4.81061649662904       -3.15451030339286
C           77.81482998892770       -6.09006033170780       -3.68922345853095
C           77.19519998637013       -7.12518860119869       -3.00240385721533
C           76.58982327893027       -6.87532954623388       -1.77831668438532
C           76.60056975047236       -5.59621853729001       -1.24276562586346
C           76.01905267933073       -2.53871346657697       -1.14468100104719
C           74.73216268757092       -3.11017822636044       -1.49878400877938
C           73.79920422121889       -2.20617186828697       -1.13490266359367
C           74.51822446033235       -1.08045638965979       -0.57175910587334
N           75.84767959893878       -1.30262759026108       -0.59959549158000
N           78.74586898214210       -1.38957282799688       -0.57098692283572
C           77.36617063450923        4.62544353795337        1.81803435262712
C           76.81086844907479        5.68367736447453        1.09755572786873
C           76.83394389330891        6.97093662135458        1.61306324002108
C           77.40484703619346        7.21569114740034        2.85455627082295
C           77.95588112806415        6.16736244554087        3.57890966275215
C           77.93989490510259        4.87971704569657        3.06444175202509
H           72.78422986581775        2.49021303093788        1.03288773974363
H           74.67222103429791        4.23412093497524        1.77119562025668
H           76.56046055795474        0.78979088055619        0.22434237021838
H           80.00915281457449        4.26887196392811        1.55343267777456
H           81.86509231779219        2.43795351547557        0.89053687706772
H           81.79518692338608       -2.55314743377206       -0.80247521931826
H           79.90792527830111       -4.28697207980924       -1.56582585177000
H           78.30546952061101       -4.00063519456628       -3.69873016072505
H           78.28632538299833       -6.27902399458954       -4.64727338088178
H           77.18407059564126       -8.12527097717398       -3.42067843646366
H           76.10720514825586       -7.68112532607562       -1.23648217326280
H           76.13822894657942       -5.40519279647462       -0.28079411625080
H           74.58520721257723       -4.06729595216792       -1.97228226995372
H           72.72737902316437       -2.26638798306271       -1.23579285768982
H           78.02758845678281       -0.70803803037990       -0.34999325426630
H           76.37649809495049        5.49665239424470        0.12169742078725
H           76.40526344312083        7.78677797487642        1.04165735500890
H           77.42053161075486        8.22221787019002        3.25692395970154
H           78.40024683210960        6.35281514917348        4.55048828167354
H           78.36015476961015        4.05994181799445        3.63628890756421
C           92.45373437817648       -0.01538552904729        0.04906174930706
C           93.08158501974616        1.14182530572851        0.55014638184251
C           92.43317572994685        2.28357340103346        1.08763529804085
C           93.39726946670244        3.19083558779262        1.43372306426634
C           94.66259055756197        2.62985290159785        1.11131584313586
N           94.42118222538997        1.38698643589520        0.58941723918749
C           95.92160506617493        3.21208904777520        1.30204591172545
C           97.14462705124699        2.59979725356035        1.02626566398150
C           98.43210926530830        3.24940521794416        1.19384992978378
C           99.36678992591276        2.34130519483164        0.84482209514965
N           97.31799387392726        1.33131656463088        0.56087541363694
C           98.64818012034421        1.14513102250408        0.45225474993107
C           99.30060277546225       -0.02968617870210        0.02507454267262
C           98.67281732172532       -1.20614282994196       -0.42893241297185
C           99.32159093149937       -2.39497593197691       -0.85163337772219
C           98.35743593391368       -3.28532459054929       -1.23892553452599
C           97.09171890890589       -2.66175219917430       -1.06902305033073
C           95.83259488114571       -3.21187018894117       -1.33802778734632
C           95.81900244573950       -4.57531261674330       -1.92451201369252
C           96.40921578720041       -4.81562847313705       -3.16608860871432
C           96.39289322035312       -6.08888910122473       -3.71537189810618
C           95.79376928262943       -7.13709921785978       -3.03019302843766
C           95.20796731471484       -6.90666379100044       -1.79284108435798
C           95.21736670244989       -5.63379535467659       -1.24261285316280
C           94.60946080352086       -2.58459738682688       -1.09858146650469
C           93.32159980146416       -3.16634821801970       -1.43112258334907
C           92.38702640101241       -2.27716610002220       -1.03609230824226
C           93.10602014251373       -1.14960661776891       -0.47665311622923
N           94.43638322604183       -1.35594406758493       -0.53635430067828
N           97.33302130793376       -1.41045903396983       -0.56758760124847
C           95.93578278194181        4.59387303094993        1.84398714701907
C           95.34335398108684        5.63772037528893        1.13198468091963
C           95.36161410175824        6.92936285234767        1.63650275508512
C           95.96479798574481        7.19295540234886        2.85873105683899
C           96.55257594754661        6.15901919188583        3.57483325585697
C           96.54131494991842        4.86702365561508        3.07120960293646
H           91.36562612469174        2.38789650323987        1.19528915382628
H           93.24767715077046        4.15947082171138        1.88193450409098
H           95.14259962577199        0.74315358809147        0.28231634950975
H           98.57877716221148        4.26557259022012        1.52207741920688
H          100.43962073329526        2.44872427280424        0.83524048844648
H          100.38939921573693       -2.54304250525081       -0.85260473118861
H           98.50733836873991       -4.28923809100093       -1.60114456815031
H           96.86585414265949       -3.99536331102775       -3.70887376944261
H           96.84911644146435       -6.26270831378470       -4.68362359812618
H           95.78336134076621       -8.13225545564831       -3.46006759719920
H           94.74157569533320       -7.72275671390363       -1.25221012383951
H           94.77038421120294       -5.45790939018479       -0.27054805770454
H           93.17458203873240       -4.11959056603681       -1.91233119694175
H           91.31397999860893       -2.34861940040993       -1.11397234017811
H           96.61143600026075       -0.73781187187319       -0.33066957780151
H           94.88361864672684        5.43611148378554        0.17075625045317
H           94.90386069513603        7.73384106365211        1.07157798680946
H           95.97689381773357        8.20290930266852        3.25253977738050
H           97.02213260646965        6.35917616497487        4.53152879589285
H           96.99012063898286        4.05844282383240        3.63726028183171
C          111.03729049660168       -0.00295875401245        0.03538502648998
C          111.66404414686593        1.15338549650445        0.53970435486375
C          111.01430026632462        2.29551126900796        1.07476669833052
C          111.97771127679306        3.20160499345491        1.42569116802087
C          113.24392402219839        2.63964991059540        1.10841054250039
N          113.00365400520342        1.39713214453589        0.58512614423456
C          114.50256471015327        3.22096591372848        1.30404672744890
C          115.72623166604167        2.60775724350609        1.03296144197337
C          117.01348668540501        3.25655852130722        1.20511888860561
C          117.94885730886168        2.34774385803833        0.85977050866894
N          115.90044439886785        1.33907722989868        0.56849271501407
C          117.23095568291845        1.15192230031928        0.46487800002657
C          117.88424902891710       -0.02343488121341        0.04055628035073
C          117.25735740864322       -1.19963797605495       -0.41550610203438
C          117.90682332310766       -2.38902921876528       -0.83556163016073
C          116.94346297526369       -3.27896441741174       -1.22585679046432
C          115.67756364109371       -2.65459731028453       -1.06051557501853
C          114.41900459551924       -3.20411373742891       -1.33358312534968
C          114.40594188312475       -4.56810341530631       -1.91886536712606
C          114.99888090311315       -4.81014077756553       -3.15878144850302
C          114.98163583162720       -6.08368978198686       -3.70739931538640
C          114.37892544766021       -7.13045368142280       -3.02316300734416
C          113.79061994064131       -6.89834891624786       -1.78730915628948
C          113.80089937402704       -5.62518762846318       -1.23779160547902
C          113.19546444181420       -2.57566868335785       -1.09961427388712
C          111.90848565037338       -3.15655223453765       -1.43717794536180
C          110.97307252365903       -2.26581492621299       -1.04772589213705
C          111.69072982648741       -1.13841230996308       -0.48623123386126
N          113.02107624483352       -1.34625257020568       -0.53942226707846
N          115.91789167112380       -1.40321346265899       -0.55885632184988
C          114.51502747824986        4.60282214692888        1.84578381614416
C          113.92436593477925        5.64631847876538        1.13175174311306
C          113.93970396605862        6.93790534708545        1.63647264050289
C          114.53826201653490        7.20183354222232        2.86090393389185
C          115.12450023724158        6.16832324872395        3.57887743595148
C          115.11611175430218        4.87636027479482        3.07509280917287
H          109.94638688861441        2.40072810559319        1.17786199417368
H          111.82699628228998        4.17004604552744        1.87393654851362
H          113.72578681852654        0.75278210535711        0.28081118805312
H          117.15956680931784        4.27273232803786        1.53359771052465
H          119.02178488523063        2.45447759304024        0.85406434065807
H          118.97453767647721       -2.53773639255888       -0.83288717785371
H          117.09395566379496       -4.28306730519142       -1.58731594986616
H          115.45819990124548       -3.99096408283565       -3.70094248924938
H          115.43980250423807       -6.25883369004304       -4.67449331468359
H          114.36759964045648       -8.12577656396882       -3.45263017216610
H          113.32141244565442       -7.71330535116306       -1.24739866669721
H          113.35169392250607       -5.44791652473927       -0.26700190401433
H          111.76261572324557       -4.11029449257229       -1.91773828781034
H          109.90031484680422       -2.33625301918977       -1.13035391153674
H          115.19586942956479       -0.73005576816300       -0.32472358214849
H          113.46816135190392        5.44442800567849        0.16889863158152
H          113.48316085675189        7.74202946813585        1.07006552920400
H          114.54790000556295        8.21170803295973        3.25498228862122
H          115.59045452125380        6.36876555831004        4.53727201258498
H          115.56348274088408        4.06808714328633        3.64271313460656
C          129.62105630751864       -0.02442922732460        0.04071842188589
C          130.25717509215485        1.12967144330519        0.53808939673627
C          129.61768732055779        2.27303193351259        1.08290788033799
C          130.58806735861612        3.17627111671523        1.42143833056635
C          131.84859126922541        2.61167720547085        1.08589671272325
N          131.59793518699320        1.36987216458816        0.56565801711851
C          133.11085150121303        3.19111003734645        1.26161605994152
C          134.32980227373113        2.57632897989525        0.97167974529438
C          135.61996071288092        3.22524415080682        1.12119208753498
C          136.54959555260967        2.31413609826892        0.76655046326115
N          134.49608455066348        1.30595330200380        0.51021156524446
C          135.82533293942882        1.11662693214020        0.38883768665397
C          136.47071386643486       -0.06387038247835       -0.03166205828150
C          135.83517562913485       -1.24147160232912       -0.47072911141974
C          136.47559169171026       -2.43627570411754       -0.88972954812804
C          135.50490419092284       -3.32428711518672       -1.26567533368396
C          134.24311029638665       -2.69368681750737       -1.09184111007178
C          132.98001450830500       -3.23966435752241       -1.35062227067336
C          132.95641671368770       -4.60633470711426       -1.92951939647220
C          133.53422734883790       -4.85576305627791       -3.17506505070055
C          133.50646434860656       -6.13166631148612       -3.71777586806351
C          132.90841371896082       -7.17342191660139       -3.02190449449204
C          132.33529197359647       -6.93395817419832       -1.78033058581070
C          132.35593223505438       -5.65837964824458       -1.23674325969633
C          131.76077619189431       -2.60615186082734       -1.10821121509614
C          130.46897568627543       -3.18431968272690       -1.43209169238956
C          129.53980791161007       -2.28956502559076       -1.03701587717561
C          130.26594919765336       -1.16265846439764       -0.48543579296159
N          131.59514208316625       -1.37448257806969       -0.55046289575100
N          134.49332818292038       -1.44057526736876       -0.59980486577979
C          133.13334292812340        4.57253155210069        1.80416621741128
C          132.53066526095370        5.61729709308011        1.10211082848476
C          132.55370811700487        6.90782902536930        1.60925494538331
C          133.17218811309064        7.16949835856923        2.82423393687968
C          133.77096311655890        6.13483013933793        3.53009612829542
C          133.75483197709522        4.84393951116994        3.02379459275688
H          128.55154757274062        2.38070083761607        1.20087129145586
H          130.44581837349543        4.14457560574191        1.87273600439708
H          132.31394517580003        0.72364642280755        0.25107242083444
H          135.77135945172265        4.24304597412650        1.44216900492347
H          137.62239198244802        2.42004245541920        0.74420400407659
H          137.54268026339412       -2.58929961033328       -0.89675702661391
H          135.64764610875244       -4.33098444259698       -1.62306527119506
H          133.98995005030645       -4.04049753219323       -3.72608607712171
H          133.95267473434600       -6.31258555909979       -4.68938944091293
H          132.88885718673222       -8.17058615234943       -3.44678646115256
H          131.86982463472313       -7.74499566249660       -1.23135172820541
H          131.91833933274532       -5.47520269201878       -0.26175187798647
H          130.31595861263338       -4.13920537622619       -1.90814870993677
H          128.46612565582552       -2.35710067527311       -1.10948001390146
H          133.77658912088754       -0.76285498019594       -0.36264549686295
H          132.05864503477827        5.41725625426676        0.14652118985907
H          132.08735069511874        7.71288883081527        1.05224361125698
H          133.18754654553300        8.17848834477004        3.22039457512860
H          134.25260466952949        6.33348894161704        4.48107907217989
H          134.21191483181406        4.03470688554017        3.58224039578148
