183
 energy: -311.339657906969 gnorm: 0.000409645637 xtb: 6.5.1 (b24c23e)
Fe          34.27276519245815        0.02892042584795        0.02150421828275
C           30.89330867076586        0.02371733210318        0.05262969573272
C           31.53254595212485        1.03032389887087       -0.64344370548692
C           30.85582076353818        2.04605709743571       -1.39112827515814
C           31.80276133351687        2.92798744042324       -1.79316002702694
C           33.05479712192431        2.45844140100863       -1.27417661107675
N           32.88247228448736        1.26653622770921       -0.62560812041444
C           34.25117137669663        3.17052389678733       -1.33819416691146
C           34.24253684876756        4.52899990571147       -1.91978494457372
C           35.07889004550672        4.85064769790423       -2.99277475681312
C           35.07226194634069        6.11954550018998       -3.54288278202447
C           34.23621970977871        7.10802786214853       -3.01631305087259
N           34.19918557457812        8.36733260635209       -3.58679231968635
C           33.39514420311181        6.79474982196037       -1.94487963931829
C           33.39939287191913        5.52002083178872       -1.40859848524390
C           35.45150883736927        2.65236187691196       -0.86574822862538
C           36.68547165805378        3.37854218733380       -0.82513946421957
C           37.64392060399851        2.50017859059158       -0.43957856340841
N           35.65111426387195        1.35887719114689       -0.44714038856752
C           36.99387780821934        1.24386782490027       -0.24093372016268
C           37.67423567496743        0.04618207636224        0.02005546173053
C           37.00591065813396       -1.16127728865778        0.26896609429314
C           37.66852471674691       -2.41405892807441        0.44760977081452
C           36.71798298378263       -3.30920885565993        0.81386149731202
C           35.47727680113326       -2.59553889991262        0.86798187275917
N           35.66425441009869       -1.29334656503336        0.46963692000532
C           34.28515665419601       -3.12775411547647        1.34485723227941
C           34.28772245025821       -4.49472875130825        1.90601343744119
C           35.13946140731981       -4.83219855580619        2.96188626098332
C           35.14063507646885       -6.10921332877048        3.49293219206554
C           34.29672947025738       -7.08976973771865        2.96410097633626
N           34.26759909658310       -8.35721946132674        3.51675581430588
C           33.43999436775798       -6.76062531414082        1.90997326014554
C           33.43667766934588       -5.47801478642094        1.39285897070878
C           33.08582063319228       -2.41812292137873        1.31125952983475
C           31.84608293221903       -2.89456728082241        1.85277022330865
C           30.89013642178388       -2.00787901267147        1.48378085260275
C           31.54901436646030       -0.98440167868749        0.73071821835892
N           32.89847420024826       -1.21963850840187        0.67975535242906
H           29.80905820490054        0.02312273502649        0.06477518994613
H           29.79323790148196        2.06593421414741       -1.57509321132576
H           31.67554247913191        3.81618645403031       -2.39065659076512
H           35.72289543148699        4.08659060723166       -3.41424026016369
H           35.71620409170232        6.35248977267624       -4.38389766746174
H           35.02347548076900        8.62857411795575       -4.10355028512446
H           33.84063591416310        9.09670062434315       -2.99159662540233
H           32.74297897735745        7.55725961510481       -1.53312742052091
H           32.75929345170764        5.29185335988160       -0.56340535772063
H           36.79524764515052        4.42653565865080       -1.05212282699241
H           38.69701967868680        2.67775508872233       -0.29459059919141
H           38.72340850784323       -2.57869330175109        0.30019182518120
H           36.83769194113320       -4.36028612794501        1.02069857846929
H           35.78906401554467       -4.07439044528983        3.38600224564512
H           35.79644161651124       -6.35463506648899        4.32113243866717
H           35.09772611585328       -8.62418454775656        4.02107869020314
H           33.90374260873712       -9.07879309970950        2.91536834355992
H           32.78129832859467       -7.51671716612024        1.49679918734881
H           32.78365518385795       -5.23687382463775        0.56125060180125
H           31.73297816397784       -3.78952371292711        2.44299389191254
H           29.83215568421518       -2.03020619282557        1.69230338607598
Fe          55.96112615891143       -0.03772903246602        0.07966524596811
C           59.34488807501354        0.00501772417559        0.16076574652579
C           58.70416925939256       -1.14099614582333        0.58630401164461
C           59.38664822073769       -2.32269470132044        1.01800429819903
C           58.43563620080146       -3.17939252228593        1.46121290153157
C           57.17471547472984       -2.51108559341355        1.31617350808823
N           57.34933662566682       -1.28564681958922        0.73338965291614
C           55.96313111842883       -3.02004185428687        1.77790115560299
C           55.96669025606672       -4.29933619521481        2.52020995482928
C           55.21109453660656       -5.38706474511512        2.07430443793594
C           55.21479417382977       -6.58502933087889        2.76603091250900
C           55.96549796130084       -6.71639153019301        3.93742445668910
N           56.00183628586911       -7.92380186458550        4.61163938656268
C           56.72571035277265       -5.63424835220629        4.38923053605753
C           56.72552362579685       -4.44384810720633        3.68506143868874
C           54.75402517545031       -2.36438566972045        1.58188386121552
C           53.50141360911115       -2.81547412726560        2.11101705020031
C           52.54950926378472       -1.97863951671593        1.63076698992715
N           54.56912592901082       -1.23199439875737        0.82529258000850
C           53.22294222943000       -1.01644320617114        0.81673835360481
C           52.55591320990548       -0.03922939706052        0.06777445117032
C           53.22673601345191        0.92366974731204       -0.69696050667041
C           52.55898881592916        1.85885735598866       -1.54624053260811
C           53.51588619155507        2.67051318882689       -2.05882687566813
C           54.76455405435230        2.23860517526748       -1.50491995644610
N           54.57341014143031        1.13306128395469       -0.71016680632323
C           55.97156186355828        2.89922487471683       -1.69476763650390
C           55.98565973828607        4.14986936030468       -2.48419484105174
C           55.20402080657271        5.24542632409309       -2.10782426096972
C           55.21860980352562        6.41481624171962       -2.84674552475069
C           56.00771809612575        6.50859024666263       -3.99626059525333
N           56.05297547627988        7.68847473922234       -4.71756437751128
C           56.79658558950342        5.41960672204437       -4.37679318799141
C           56.78498528870630        4.25831333020056       -3.62569102314838
C           57.17288226622809        2.42982770468008       -1.16797420217281
C           58.42168873789152        3.12831680681979       -1.26766067578861
C           59.36856546248832        2.31589277114220       -0.74024816556039
C           58.69581729100096        1.12716459440328       -0.31216663590172
N           57.34758227035997        1.22820273764240       -0.53854230074751
H           60.42869936166004        0.02110065903027        0.19101969097797
H           60.45537367120502       -2.46220377261303        0.97701390057159
H           58.56508280024597       -4.17727507270165        1.84781952286649
H           54.63347371309388       -5.29645191026993        1.16090877773446
H           54.63453213694283       -7.42615794705049        2.40259797278105
H           55.21463818453284       -8.53035031400385        4.44700806488494
H           56.27865334083128       -7.86575347043749        5.57847978241876
H           57.31192093386660       -5.73087066714401        5.29658913463021
H           57.30238172118726       -3.60260601884296        4.05343692947308
H           53.37582933071008       -3.65684995111102        2.77292164191899
H           51.48635412116623       -1.99779379584820        1.80839510605304
H           51.49663983517527        1.87470485661967       -1.72876631357217
H           53.39533032018811        3.48440822070850       -2.75510744009348
H           54.59705810105691        5.18491777127878       -1.21111983811388
H           54.61714732929730        7.26265315307321       -2.53736234235497
H           55.25178048270163        8.28883455590690       -4.60557218979387
H           56.36208675084615        7.59393891245182       -5.67174466688054
H           57.41413007338702        5.48782246169966       -5.26575781770486
H           57.38549313211553        3.41103599650418       -3.93823785376683
H           58.54520770188368        4.11619682953419       -1.68105629608100
H           60.42897324915263        2.48780122511840       -0.64392650248968
C           39.07624822372888        0.05178540383611        0.02660223752170
C           40.29597680137910        0.05355510664720        0.03609651547623
C           49.93390582765544       -0.02112216813427        0.07627170177036
C           51.15274617184594       -0.03147737179291        0.07322351845780
Fe          45.11534976893073        0.01562075824860        0.05567816140605
C           41.69793310184744        0.04415987756609        0.03971459927334
C           42.38061347684491        1.13129040946484       -0.52360629529446
C           41.71683496798369        2.25031633976479       -1.11223431748842
C           42.67932793684295        3.14960095946980       -1.43138492282708
C           43.93022260170662        2.56725964956105       -1.04970339605789
N           43.73081834565453        1.31738469475413       -0.51474613467067
C           45.14554405684583        3.24019648770628       -1.10274566207734
C           45.16044139412264        4.63787390692575       -1.59307010292960
C           44.79820940135597        4.93798458079036       -2.90813833715524
C           44.82210016693354        6.24234248954847       -3.36894898737505
C           45.20578317652320        7.28069800938440       -2.51609239985690
N           45.18549956219007        8.59129909659690       -2.95925752535333
C           45.55403747225016        6.98957391937835       -1.19447170621716
C           45.53913650380828        5.68136200993571       -0.74504736349025
C           46.35027401585619        2.66428280372717       -0.71435552819637
C           47.61428811486435        3.33196013498421       -0.79551905276670
C           48.56049747898052        2.41788175741328       -0.46949902325040
N           46.52476115771172        1.35771033134285       -0.32869132961322
C           47.87231471478206        1.19529584618638       -0.20190926775046
C           48.53121508798009       -0.00820696402900        0.08010652157326
C           47.85159639898718       -1.20197333813347        0.35464347915329
C           48.51378773564959       -2.44902542563727        0.56838888972938
C           47.54886871473173       -3.35461053029861        0.86411127323821
C           46.30300737304862       -2.64984391346716        0.84430593521175
N           46.50197317159364       -1.33885797630354        0.48708401055320
C           45.08281271697055       -3.21648942125336        1.19779857075151
C           45.06280484267972       -4.61773670699548        1.66910358191073
C           44.29786768879143       -5.57883420794945        1.00185938827172
C           44.28668166654532       -6.89542571679495        1.42466165176850
C           45.03887168674647       -7.28092251794778        2.53789947430616
N           44.99327041337535       -8.58616733138327        2.99180597378536
C           45.79099436096432       -6.32215346212129        3.22250083612057
C           45.80806740656220       -5.01042421413662        2.78431328508139
C           43.87882963920722       -2.52400574160524        1.12335888229934
C           42.62487727217089       -3.05356539705879        1.56585457966540
C           41.67897948118408       -2.13830987904589        1.24009487282103
C           42.35923545951066       -1.05442584170717        0.60661092092126
N           43.70406175102329       -1.27516992013315        0.57924743290800
H           40.65104896565874        2.33134123492007       -1.24924536789593
H           42.55767652136940        4.12642595523018       -1.86991489206727
H           44.51719928125132        4.13530205406997       -3.58097639290088
H           44.54736324486805        6.46304656912715       -4.39461485123740
H           45.24953654042515        8.70530288608694       -3.95817179214972
H           45.76701001518964        9.22747103566239       -2.43762269588334
H           45.83793285496283        7.79306602012181       -0.52370584879997
H           45.80348609296981        5.46325837332002        0.28380283731008
H           47.75490592273682        4.36093030649067       -1.08336197889302
H           49.62958642279325        2.54620861987058       -0.41978810213795
H           49.57781898838839       -2.60273008427673        0.48939854231500
H           47.66375929704819       -4.40659170991230        1.06826161082504
H           43.72650463713976       -5.29098169049983        0.12620821691648
H           43.69841101781174       -7.63434390645153        0.89160590747648
H           45.77392215337571       -8.87058535401751        3.56125138231377
H           44.71511603056862       -9.26942865564813        2.30597394038615
H           46.36262896821117       -6.61205157169392        4.09736208979684
H           46.38686328458870       -4.27072804683868        3.32642559799234
H           42.49382036806417       -3.99631930815996        2.07140546783138
H           40.61670066296274       -2.17938526130320        1.41666516241154
