124
 energy: -214.708661952440 gnorm: 0.000730216351 xtb: 6.5.1 (b24c23e)
C           11.93224468015153       -0.02226692469727       -0.21784820537257
C           12.53816287463052        0.99498801686743       -0.94643951591690
C           11.89376880572284        1.98410012170984       -1.73928746199201
C           12.86194942887238        2.78557335262132       -2.27964855270172
C           14.12313914564737        2.30813274609454       -1.83249011388327
N           13.88247377600073        1.23154289143700       -1.03383254866281
C           15.39020011094172        2.83292543878953       -2.14443481336964
C           15.41430886547649        3.96076298879063       -2.99468626391232
C           15.42912758206123        4.93062674127888       -3.72397053359503
C           15.45704740186351        6.06110081647048       -4.57204245268129
C           14.28438026266963        6.57299501102171       -5.13966742117692
C           14.36679151292874        7.68233413524741       -5.96211336548223
N           15.51365633502238        8.29509672081305       -6.24459418592205
C           16.63287767801015        7.81453355172219       -5.70887004477738
C           16.65926795230822        6.71105335851149       -4.87504834679326
C           16.61685065158175        2.32777350285357       -1.68389558522985
C           17.89869716950201        2.90072581960163       -2.04449806748497
C           18.83658147374872        2.15274313740691       -1.42589527894597
N           16.78782926040385        1.26091261145596       -0.86518916879452
C           18.12159975710130        1.12827194247202       -0.68966090404253
C           18.76974350804912        0.15013998809361        0.08873373302222
C           18.13698302253761       -0.86546591596741        0.83260615200488
C           18.77474753212159       -1.85409754509907        1.62562954681799
C           17.80164983144054       -2.64894114347490        2.16953915383198
C           16.54505238858897       -2.16619121776339        1.72102282672129
N           16.79399149728037       -1.08823011708159        0.92013420950471
C           15.27918712798544       -2.69313539515922        2.03245763574145
C           15.25556690455515       -3.82494537435481        2.87568556282471
C           15.24067953517496       -4.80217443555702        3.59547451337266
C           15.22313804162241       -5.94332313548944        4.42889186215244
C           16.41141432005550       -6.52216694248057        4.89065835546874
C           16.34126782309122       -7.64084655801302        5.70140167653151
N           15.19199327148525       -8.20119844422039        6.07014769319032
C           14.05809196522148       -7.65632570157685        5.63636198733496
C           14.01866018899185       -6.53878328771049        4.82188585922876
C           14.05170920134054       -2.18765483745627        1.56793522815302
C           12.76383063321863       -2.76362167847082        1.91373596091966
C           11.83304279763547       -2.01723244907759        1.28494702593765
C           12.55558638558801       -0.98852617980175        0.55715691896474
N           13.89411447541372       -1.12514140190070        0.75381925697428
H           10.84863743763618       -0.05586394099273       -0.26767257299418
H           10.82650179818944        2.06235737624302       -1.87155574222215
H           12.72508594599044        3.63383521143422       -2.93105172963758
H           14.59948510138534        0.68354671846079       -0.57038350001794
H           13.32884926635694        6.10478484303687       -4.93611873449442
H           13.47288905330366        8.09996488496264       -6.41645510245092
H           17.55054164188722        8.33896572907089       -5.95931236867571
H           17.59376547711729        6.35304294961610       -4.46026100453722
H           18.03326420297212        3.75703846430393       -2.68587120887144
H           19.90904630593635        2.26172384189937       -1.44789804373832
H           19.84123887789191       -1.93889896083996        1.75802659083566
H           17.93493103953677       -3.49620750307543        2.82274583506105
H           16.08012648342274       -0.53810958410497        0.45398072264699
H           17.36927653601935       -6.09812015361737        4.61427338050011
H           17.24738651582311       -8.11063496297682        6.07310970148809
H           13.13884240182007       -8.13872342051963        5.95607035709423
H           13.07233951389111       -6.12808012146361        4.49123716778053
H           12.62421379059098       -3.62133096585152        2.55246868703548
H           10.75988162818948       -2.12594357755835        1.29243001441801
C           34.77969404260428       -0.21628571127254       -0.04698095419315
C           34.17369952928944       -1.05121427489194        0.88492240414808
C           34.81802048805320       -1.94734312752289        1.78158166404142
C           33.84985302918106       -2.57099677865291        2.52010519037602
C           32.58875823768632       -2.07367764134080        2.09488794939877
N           32.82943779176198       -1.16297187125403        1.11128311165114
C           31.32179261580405       -2.44004206070672        2.58346995724093
C           31.29809958261972       -3.40815937805584        3.61192241007796
C           31.28310385016406       -4.23777517222301        4.49750508220129
C           31.25532322350313       -5.20371085132516        5.52913456323873
C           32.42818839432117       -5.82344420213616        5.97615306795514
C           32.34598955626893       -6.76205962788594        6.98909232706011
N           31.19924916465740       -7.10974715173998        7.56759052077955
C           30.07987495425057       -6.52498931083963        7.14840484494734
C           30.05316638414688       -5.57603739191970        6.14217748022501
C           30.09513397560305       -1.92726835377207        2.13148936860156
C           28.81330353351992       -2.34729802831553        2.66245085275073
C           27.87545197301193       -1.65121374612280        1.98592951580738
N           29.92418991424609       -0.99791880022535        1.15946563430202
C           28.59046345683647       -0.80863309406376        1.04701295500273
C           27.94235954787961        0.07169961813570        0.15953668577031
C           28.57510634624125        0.92105038623590       -0.76973678293980
C           27.93740633456152        1.81701675384424       -1.66618096683952
C           28.91052165428428        2.44403022018629       -2.39723682378551
C           30.16714965380891        1.94610596899690       -1.96567468359211
N           29.91811283791457        1.03225095106574       -0.98168416932280
C           31.43307085507628        2.31349145464714       -2.45517393637250
C           31.45662143848526        3.27498273159138       -3.48840876152392
C           31.47095291308918        4.09732580610353       -4.38102998023174
C           31.48811765081481        5.05028053087162       -5.42444050129467
C           30.29963200435412        5.57283925900997       -5.94856273938486
C           30.36930984610359        6.50033262790863       -6.97255912453241
N           31.51831764023039        6.92718926996525       -7.49060181117474
C           32.65242750139549        6.43608859647319       -6.99723274827906
C           32.69232818689121        5.50498597148740       -5.97483795338883
C           32.66052098523398        1.79653016177564       -2.00340660687261
C           33.94844939242417        2.20321146059034       -2.53801321672367
C           34.87913894892835        1.49611786875709       -1.86520179773726
C           34.15649585667284        0.66015849042908       -0.92236315169728
N           32.81800935009255        0.87100115551647       -1.03637945971484
H           35.86326289733020       -0.26271199235376       -0.08621402363842
H           35.88523064807749       -2.08804897438872        1.84437784360704
H           33.98666394633157       -3.31084538632560        3.29245220965615
H           32.11247097443989       -0.64226964950795        0.61730431540693
H           33.38364910624231       -5.56989474643337        5.53285079167325
H           33.23998112121806       -7.25887105302154        7.35478168660076
H           29.16219877228027       -6.83177798677102        7.64199380962141
H           29.11859191336154       -5.12493806139504        5.83154355456561
H           28.67871245774156       -3.07732875080638        3.44454414895346
H           26.80299481395450       -1.68461060865906        2.09208891130456
H           26.87090811286247        1.95775750635101       -1.73622744727419
H           28.77728163308286        3.18564137221741       -3.16831299737720
H           30.63195941238537        0.50907843736655       -0.48544667096832
H           29.34196726754265        5.25252272464490       -5.55617963589364
H           29.46300467220704        6.92144987009065       -7.39823045734128
H           33.57144374850024        6.80588088300404       -7.44287951926616
H           33.63879442937317        5.13107418728627       -5.60345151965332
H           34.08815743723154        2.93215452622946       -3.32048668521685
H           35.95230032968125        1.51522642840092       -1.97253923928861
C           23.97031339736874        0.16114326254037        0.18826700410255
C           22.74181539800344        0.17111371461914        0.17974590954386
C           21.39782102088697        0.17464962337124        0.16144449864629
C           20.17419916998528        0.17084734281569        0.13161483402838
C           25.31428618748871        0.13936349444120        0.19127252603102
C           26.53791929806179        0.11210609077108        0.18532695889307
