152
 energy: -234.121539520416 gnorm: 0.000340483681 xtb: 6.5.1 (b24c23e)
Fe          15.78702984222459        0.04971634001213        0.06954470912759
C           12.38650520819860        0.12590660812094       -0.00575678078658
C           13.04511481463212        1.21172289207102        0.53364096418817
C           12.37602236722955        2.35254339429513        1.08345270905287
C           13.34153888200307        3.22305311805403        1.46204504121554
C           14.59815300390171        2.61076712634067        1.14166048136143
N           14.40456904277523        1.37673795599288        0.58315469422842
C           15.82585147181219        3.22740059001193        1.34385878530378
C           15.83998259927361        4.60802325482403        1.90317786144231
C           15.73027808533900        5.70536668483493        1.04417262297881
C           15.59966077030503        5.48766623913754       -0.43967506844273
C           15.74218467998514        6.99033627992255        1.57363974886908
C           15.85967375028187        7.19760182369532        2.94414193670872
C           15.89089838532218        8.59419628010791        3.50363425868115
C           15.96869935391163        6.09779341467749        3.78905395183055
C           15.95990787412034        4.80371131728063        3.28198589090805
C           16.07662263370465        3.61780546376071        4.20192472390078
C           17.03629090023691        2.62254037741787        1.04813993490079
C           18.30582770916894        3.25093539461833        1.26078064252801
C           19.25141538151919        2.34512401156701        0.91319936824694
N           17.20688133279508        1.35075445640873        0.55416436899652
C           18.55622462350012        1.17068676310592        0.48628520802015
C           19.21015482921632        0.00099556995426        0.07848301162901
C           18.52440492270874       -1.14453994653311       -0.34535332462636
C           19.18562440945436       -2.34750804098285       -0.74545939769797
C           18.21677223986609       -3.21397143424088       -1.12816959374112
C           16.96729309721621       -2.53385177030969       -0.96110997308187
N           17.17265807356768       -1.26609460060250       -0.47078142512545
C           15.74304543453276       -3.09117460301538       -1.29234215331676
C           15.71910693398531       -4.46971599768875       -1.85626377975996
C           15.89356906482074       -4.66558811930105       -3.22982203990508
C           16.10782429443682       -3.48265851816225       -4.13592414017064
C           15.86674038704438       -5.95615936460660       -3.74311208883486
C           15.67003448373795       -7.05379596842177       -2.90968903769033
C           15.63442423233612       -8.44208256038126       -3.48940789520822
C           15.49773004870432       -6.84658853672302       -1.54600634969315
C           15.51992399339638       -5.56366469534431       -1.00993160328462
C           15.33150197119016       -5.34670164881214        0.46785992053858
C           14.53430634356728       -2.43087417263019       -1.11609245539698
C           13.26365494431592       -3.00030316921173       -1.45982116628130
C           12.32133128215176       -2.09848993499023       -1.09664193721148
C           13.01853278936881       -0.98079752157886       -0.53433579246932
N           14.37298416039727       -1.18625003086126       -0.57057563763592
H           11.30243577375492        0.14313023308124       -0.01458665232033
H           11.30509805192316        2.45531937036132        1.15921737179430
H           13.23210102694968        4.19420294599276        1.91738954152020
H           14.68247946841125        4.93873196587628       -0.66196115457073
H           16.43930094499917        4.89823250146190       -0.81237455594924
H           15.57464875643763        6.43801025478161       -0.97197410618329
H           15.65676730882471        7.84227463577499        0.90704085343942
H           15.47103033016865        8.61928574535068        4.50950742084628
H           16.92256496665649        8.94972262204428        3.55756780198795
H           15.32891843818909        9.27976266965591        2.86897275931491
H           16.05996735465450        6.25027822410958        4.85951529450795
H           16.98165230383060        3.05094026693336        3.97509342157742
H           16.11622505648567        3.93539168993564        5.24341710081031
H           15.22339213971103        2.94987119442996        4.07061141217118
H           18.43894548489877        4.25394146996838        1.63272795896408
H           20.32441988021813        2.44653730610644        0.93979896741544
H           20.25368102251934       -2.49394475709737       -0.73044314094223
H           18.32184848981591       -4.22374860872563       -1.49068465533310
H           15.29679234117327       -2.76187024270063       -4.01808668277781
H           16.15197751671421       -3.79420349859734       -5.17904881179191
H           17.04207846685248       -2.97744747968112       -3.88308192635835
H           16.00121645080733       -6.11005503324313       -4.80882577737931
H           16.49762717141785       -8.60911184493778       -4.13550072259303
H           15.63536013748000       -9.19508108479895       -2.70145379937061
H           14.73317358743448       -8.57382617624582       -4.09190373972986
H           15.34427812549560       -7.69565249788250       -0.88800791981062
H           14.42017597627449       -4.77436504696755        0.65237744606872
H           16.16929370886347       -4.78078407271911        0.87905504792323
H           15.25775763440521       -6.29751886979080        0.99476955553219
H           13.12985337026070       -3.96699640301397       -1.91811887580943
H           11.24892168125736       -2.16638620204452       -1.18883733943760
Fe          29.22904202241138       -0.08385763402506        0.01660609716230
C           32.62953065490176       -0.08640811122443       -0.09008915782415
C           31.97102646658366       -1.24350913701307       -0.45231466433842
C           32.64025694405763       -2.44742652801602       -0.84496126456004
C           31.67485792131561       -3.33770264278349       -1.17473440733634
C           30.41817318758030       -2.67402751861900       -0.98262783491994
N           30.61160427086013       -1.39690003000188       -0.53120694775299
C           29.19060169383934       -3.25884541125667       -1.26446678266966
C           29.17675901606626       -4.64216752180818       -1.81707202036712
C           29.28819113329488       -4.83897698175842       -3.19654212054646
C           29.42015527437861       -3.65439752702289       -4.11611573224665
C           29.27673391725691       -6.13263414531099       -3.70442603353147
C           29.15801553894562       -7.23121107372203       -2.85940013881814
C           29.12736211134055       -8.62619480677718       -3.42293257247780
C           29.04723190400411       -7.02286653888864       -1.48839307075781
C           29.05552882579529       -5.73814713689081       -0.95804368863346
C           28.93692649174419       -5.51966936291625        0.52670638481566
C           27.98010446101916       -2.61760688922670       -1.05956036545551
C           26.71063110520235       -3.21802843592902       -1.34197103801595
C           25.76496621121196       -2.32393087930722       -0.96544623667697
N           27.80939317115250       -1.35818047768194       -0.53491096728050
C           26.46005249834494       -1.18125139342050       -0.45950499782088
C           25.80595139150658       -0.05523289193828        0.05662357947100
C           26.49154518691265        1.06458838053702        0.54458316445165
C           25.83025312891193        2.20936088600119        1.08919647334522
C           26.79901420687787        3.09970535080464        1.41276850761681
C           28.04851517784169        2.49364526683366        1.06192092216181
N           27.84327946977652        1.23939261841871        0.53798665497676
C           29.27263321644086        3.12550961833945        1.20826035977786
C           29.29636366474870        4.51085983392552        1.75525705507463
C           29.12074661037563        5.60272329029868        0.89941018851592
C           28.90538284856729        5.37575571414955       -0.57312332965966
C           29.14752409830889        6.88957715335667        1.42194674246360
C           29.34530224986713        7.10527502285151        2.78299567814126
C           29.38095185258605        8.50864654293107        3.32517764104714
C           29.51868776989236        6.01206936186463        3.62387912941901
C           29.49657995880238        4.71496362122747        3.12307581702113
C           29.68620102517484        3.53577945307297        4.03959773749538
C           30.48143217040759        2.52727909878515        0.87807687027830
C           31.75199516969300        3.17641748956900        1.02384475055587
C           32.69442543564433        2.27426495006303        0.66178336331005
C           31.99737536621636        1.07820925673845        0.29422831546666
N           30.64292018360163        1.25137055503795        0.41041878672532
H           33.71360033949639       -0.09266198661596       -0.10828795200235
H           33.71118652384766       -2.57404118453805       -0.86103017650183
H           31.78439707785325       -4.35376245415882       -1.51834990738052
H           30.33728053203810       -3.10474543967051       -3.89537736170938
H           28.58058616644358       -2.97080906029503       -3.97769092317993
H           29.44617415812389       -3.97138594833409       -5.15821204120301
H           29.36350848911303       -6.28563539715385       -4.77517794440716
H           29.54639706418714       -9.34086964082596       -2.71416539204436
H           28.09591500466148       -8.91998265489044       -3.63138185226521
H           29.69039306428331       -8.68131635475765       -4.35490703446160
H           28.95498762148920       -7.87414863540093       -0.82185113401952
H           28.03149445955950       -4.95382516505039        0.75447920441230
H           28.89683791775497       -6.47001689802044        1.05809008097892
H           29.78957724448616       -4.94669848261612        0.89558199097635
H           26.57762084093186       -4.19902369255369       -1.76864143650981
H           24.69196555196226       -2.41541604654589       -1.01681146969917
H           24.76222369763500        2.30441193852133        1.20184112778058
H           26.69385937853683        4.07922525079701        1.85047631939252
H           29.71626098708906        4.77412041726283       -0.98749596636036
H           28.86052290016801        6.32249863215777       -1.11051087537618
H           27.97115271952751        4.83581053038136       -0.73947377257631
H           29.01218131998503        7.73811154549281        0.75923679241069
H           28.51744511831461        9.07616973897652        2.97485879716943
H           29.38066707357825        8.50696775732114        4.41507527306314
H           30.28191137600695        9.02083847245398        2.98087489884733
H           29.67295441466272        6.16970355521486        4.68631608775035
H           30.59762070846891        2.99538393975381        3.77612822673147
H           28.84869151117217        2.84228176486598        3.94537862732209
H           29.76048951567930        3.85757367334957        5.07789319346687
H           31.88568712040269        4.19140852606861        1.36201150588530
H           33.76681278707741        2.38726877489732        0.64207691693708
C           21.83488044054286       -0.03065248165518        0.09580288935000
C           20.61075955522587       -0.02176850433066        0.09141187745888
C           23.18125597606647       -0.04092091934490        0.09068680737045
C           24.40535172503717       -0.04792895919639        0.08137248699101
