306
 energy: -475.532923610647 gnorm: 0.000632092280 xtb: 6.4.1 (bd6e46d)
Fe       49.51501542741432    0.02978367118795   -0.04179678574776
C        46.11763646883480    0.09498019359444   -0.10167317983290
C        46.77837055092219    1.22625032835191    0.33151118668107
C        46.11396549165199    2.42471241040215    0.74884869705856
C        47.07703451126962    3.27074800046579    1.18505662558248
C        48.32826830371444    2.58655126004004    1.03270199125229
N        48.13448157615363    1.34619814652767    0.48820657234897
C        49.54664376784323    3.10991564811855    1.44533733787226
C        49.55756304464185    4.45407527641748    2.08791295749717
C        49.76069801275212    5.59614199801329    1.30720250409215
C        49.97527589863307    5.46350875959198   -0.17695068153397
C        49.76164604884457    6.84601847215257    1.91409712275317
C        49.56340258691659    6.97541810831621    3.28551194676891
C        49.58300530729348    8.33646850952453    3.92733720058754
C        49.36496426229859    5.83239554223001    4.05204065603511
C        49.35901015720480    4.57149217546648    3.46612391953711
C        49.13931328259763    3.33829310437973    4.30110698754968
C        50.75036419159233    2.44477244164699    1.28035859155580
C        52.01244575882455    2.97043015213197    1.70854099168471
C        52.96002154335108    2.09529883274784    1.29383432785092
N        50.92645356742375    1.24408374659219    0.63431236332748
C        52.27405166471927    1.03893295427434    0.61604656220050
C        52.93254294726241   -0.00764101209263   -0.04105907870106
C        52.25124416688623   -1.04830231735775   -0.68366231922262
C        52.91457965665794   -2.13394195805846   -1.33735505234553
C        51.94953917829352   -3.00396289110271   -1.72142589840487
C        50.69887630256177   -2.44161096269208   -1.30676986360316
N        50.89984997241025   -1.22871030635519   -0.69182619168502
C        49.47936407870469   -3.07792742182817   -1.47007834834622
C        49.46011762164301   -4.43870332801604   -2.07652055759081
C        49.29708975807416   -4.58677727849860   -3.45751959658292
C        49.15027642042960   -3.36950735452716   -4.33098865461953
C        49.27184852224347   -5.86174945384194   -4.00825589453737
C        49.40537683013463   -6.99111936556196   -3.20499231886225
C        49.36801522592198   -8.36220498235659   -3.82439002335240
C        49.56877830089883   -6.83143007592061   -1.83401858345351
C        49.59799390098320   -5.56461790820865   -1.26080908446501
C        49.77582012600110   -5.39904111102061    0.22486335148171
C        48.26929998291675   -2.50371791398527   -1.10336117916806
C        46.99855920641181   -3.14232541905658   -1.28923279515660
C        46.05358464347650   -2.24656299999915   -0.91751809855307
C        46.74866634130931   -1.06625015522660   -0.49858276062897
N        48.10390032233023   -1.24361975443276   -0.59581764351162
H        45.03389521603028    0.11726548265106   -0.12440690498879
H        45.04686977582039    2.57668685252853    0.71109413587301
H        46.96898022139518    4.26793193756830    1.58062738242343
H        49.14481868676832    4.92283054598664   -0.63444669782239
H        50.88971804391080    4.90172665379545   -0.37750831132371
H        50.05777439115653    6.44289049626263   -0.64732379127197
H        49.91651700663564    7.73314072801579    1.30868448673221
H        49.09507685737319    8.31563030746083    4.90184832186552
H        50.61460276645517    8.66721705814356    4.06807189063693
H        49.07795165733246    9.06820068833056    3.29567704880068
H        49.21018732299404    5.92317702944876    5.12221614160945
H        49.97190636964132    2.64326201132708    4.17833574430800
H        49.04837754454826    3.59354611162965    5.35644903259228
H        48.22823985409012    2.82591439859591    3.98590070995584
H        52.13977007151992    3.89361387583595    2.25054298681608
H        54.02928188636567    2.14881098807113    1.42151644265255
H        53.98214275056885   -2.21044636223324   -1.46753752728659
H        52.05764827384895   -3.94479408785005   -2.23660662519685
H        48.26119074541622   -2.80402304986427   -4.04536219370936
H        49.06269999275069   -3.65114749613674   -5.37988519142884
H        50.01441922185647   -2.71280550967501   -4.21491935742148
H        49.14523668582015   -5.97864060259574   -5.07964080053715
H        50.14847942659949   -8.45832807756826   -4.58135086537662
H        49.51588433799329   -9.13604016548406   -3.07130256418148
H        48.40557354926494   -8.53054477883509   -4.31146430161719
H        49.67386095131211   -7.70521203770347   -1.19927847944872
H        48.94421985044218   -4.83121567788292    0.64607794435550
H        50.69536545067089   -4.84987255539753    0.43644995011858
H        49.82591883212242   -6.36759819631566    0.72143293449628
H        46.86618110177157   -4.14442326466851   -1.66440710587250
H        44.98050001903056   -2.35472808251344   -0.92187529144980
Fe       89.82216173606425   -0.01511366145243   -0.08266352409904
C        93.21859677336893   -0.03176237929249   -0.15623494683066
C        92.55840269816039   -1.18802978264216   -0.51905330985837
C        93.22209355953882   -2.39600024805043   -0.90916371661920
C        92.25443107129881   -3.27127896574222   -1.27145226693888
C        91.00123995402406   -2.59319423455560   -1.10775139087706
N        91.19924372850105   -1.33008957487024   -0.61959129762294
C        89.77803030092004   -3.13510807479034   -1.47980768308995
C        89.76055269351681   -4.50099952730537   -2.07447238254485
C        89.94872632257359   -4.66864024161435   -3.44917559874322
C        90.16438851942924   -3.46710984215813   -4.33015808633632
C        89.93628294873908   -5.94977528431091   -3.98864146914220
C        89.74195695956503   -7.06422005582958   -3.17944801074398
C        89.71357071506038   -8.44581704700786   -3.77537785114337
C        89.55438839112448   -6.88490347669456   -1.81253219981642
C        89.56172330194752   -5.61350623023438   -1.25151280093500
C        89.35990923484441   -5.42650487695977    0.22855039128528
C        88.57602164038708   -2.46350130034621   -1.32703760921333
C        87.31111493513853   -2.99377980143130   -1.74068065230684
C        86.36818687751750   -2.10258733895580   -1.35004164885554
N        88.40604437541518   -1.24629715786358   -0.71150070604865
C        87.05915531034923   -1.03482271645113   -0.69544122718342
C        86.40626128938328    0.01646575200131   -0.04036258598727
C        87.09365738875283    1.04983018831748    0.60732367657128
C        86.43899042531716    2.12107667220841    1.29259035721008
C        87.40868392538835    2.98464431908299    1.67990355695236
C        88.65300214030987    2.43688633029944    1.22806893878856
N        88.44469296480626    1.23304012643864    0.59784773742290
C        89.86972894086139    3.08717771102783    1.35341348475790
C        89.89525638305923    4.44196930695626    1.97272358690062
C        89.66298804281990    5.57224835853137    1.18276154870775
C        89.37659810233900    5.41631034170184   -0.28695739814446
C        89.69884108162215    6.83208311040229    1.76728401836383
C        89.96073074464441    6.98322808941260    3.12596937078167
C        90.01299268447683    8.35814263144617    3.73563560306070
C        90.18782367964567    5.85214164097711    3.90179839802678
C        90.15804620396815    4.58133625873542    3.33803525321674
C        90.40604108392216    3.36113183420948    4.18415869349807
C        91.07061730356847    2.53702998061264    0.92436995394474
C        92.33614859871346    3.20234391432153    1.03791123406317
C        93.27751184618580    2.32556508670892    0.61501231913441
C        92.58568697991338    1.12773699260832    0.24284765736793
N        91.23404661684700    1.27937779699914    0.41040668859442
H        94.30245920762032   -0.03585499162380   -0.18256398456351
H        94.29161780010611   -2.53499484154759   -0.90326700025853
H        92.36054299838466   -4.28389611710362   -1.62621609481922
H        91.07809527016087   -2.94470862192595   -4.03996427643030
H        89.33332765084850   -2.76695710138123   -4.22767321804684
H        90.24822474858770   -3.76110936775219   -5.37597468588246
H        90.08317796668429   -6.08011474659085   -5.05584874757903
H        90.11809003221933   -9.17803880896466   -3.07596242813651
H        88.68417744453248   -8.73028684511947   -4.00573145645968
H        90.29120843111217   -8.48331494016303   -4.69918497280996
H        89.40272052413874   -7.74890525456480   -1.17378636651478
H        88.45155458814841   -4.85064204848153    0.41619088917996
H        89.27391377903841   -6.38772491953390    0.73436586746073
H        90.19819247461966   -4.87634718392710    0.65977612714723
H        87.17888127646734   -3.92988333327023   -2.25884784515450
H        85.29868228655194   -2.15388461750452   -1.47652143625637
H        85.37358987846324    2.19195180875916    1.44243463704948
H        87.30738735569700    3.91329409993182    2.21809407384511
H        90.16876068948562    4.84176069251944   -0.77026119955095
H        89.30039230586662    6.38811478223909   -0.77385915661504
H        88.43771851578059    4.87846279663956   -0.43331576770518
H        89.52057300827373    7.71005897132735    1.15497042337109
H        89.18329510475458    8.96936809470214    3.37801130117313
H        89.96795972561092    8.30545328461082    4.82338907107703
H        90.94363398706305    8.85598109525666    3.45411737626271
H        90.39122840192019    5.95952123204721    4.96225718565488
H        91.30741401578672    2.84500617198758    3.84777197053970
H        89.57109170261823    2.66339761650790    4.09883879374814
H        90.53085689836418    3.63261231791316    5.23196443864286
H        92.46804642279815    4.20900014968021    1.40093888202450
H        94.34660299822889    2.45641571275390    0.55871761197579
C        55.55834216822523   -0.02549601958736   -0.04611727880515
C        54.33464706126131   -0.01913729269276   -0.04523954629707
C        56.90560426937952   -0.02736576818549   -0.04770704751122
C        58.12948112765661   -0.03361983936579   -0.04746977396314
C        68.99466431524118   -0.00579070080386   -0.02698896410472
C        67.76919317988356   -0.00964103506969   -0.03289284902010
C        70.33873202005898   -0.00440763965812   -0.02141476760144
C        71.56419705248875   -0.00602531338873   -0.01604028614771
C        82.43290781230615    0.03520407726416   -0.01907296842026
C        81.20918024662588    0.02965457977282   -0.01681772540644
C        83.78038655587957    0.03463940414364   -0.02323455179042
C        85.00396241085951    0.02999008999779   -0.02891388600119
Fe       62.95063910706788   -0.04534187652888   -0.03602968998793
C        59.53047856776482   -0.04015177431313   -0.04300282625057
C        60.20173280109703    0.37087822352009    1.11640502621556
C        59.53269284796403    0.79676283516870    2.30569780334683
C        60.48886833466577    0.94943701988627    3.25499734286033
C        61.73727019614640    0.61940760567694    2.63701672767555
N        61.54870958864804    0.30121399665121    1.31526192450106
C        62.94261556360618    0.54582897193338    3.32214579259639
C        62.93541708750154    0.78103286908376    4.79281522663808
C        63.20494947035016    2.05552095933822    5.29955784760936
C        63.50166803957845    3.19204850142224    4.35804660206829
C        63.19494465649703    2.25884465765962    6.67452712792619
C        62.92168739719274    1.21311757245084    7.55024582810398
C        62.93555399112025    1.44066859023274    9.03762209679679
C        62.65600850840677   -0.05102269881331    7.03392266548839
C        62.65866393271015   -0.27775778390352    5.66277624309663
C        62.36628296835854   -1.64759754874246    5.11123206726930
C        64.15240172396214    0.26333190067189    2.70639702006190
C        65.40185220079984    0.18923247233471    3.40197692437529
C        66.36403602293274    0.04077122490954    2.45835909055555
N        64.34874158774463    0.12289901219007    1.35356762872772
C        65.69686120764797    0.01923558132675    1.19420515844292
C        66.37173321443882   -0.01923705744101   -0.03528925454275
C        65.69852349109524   -0.07371987189908   -1.26506202548705
C        66.36710040444167   -0.09975607177200   -2.52842282932779
C        65.40891070119038   -0.28175735493745   -3.47032009068001
C        64.16019496537533   -0.36724339481739   -2.77482878016690
N        64.35248082401208   -0.20322138163871   -1.42412812568035
C        62.95451491618240   -0.67262707911606   -3.38781387775448
C        62.95072903964549   -0.93586668529205   -4.85375176836927
C        62.66008312046927    0.10126828038516   -5.74499059805482
C        62.35498158412377    1.47955494466599   -5.22208285024069
C        62.65402787492744   -0.15497812662996   -7.11096161232151
C        62.92982855210614   -1.42727699196539   -7.60121778381250
C        62.93631818261827   -1.68751577274469   -9.08328134066289
C        63.21893779343331   -2.45079020050448   -6.70456502754935
C        63.23256095567851   -2.21782642932457   -5.33438000800293
C        63.54492306626312   -3.33060649042580   -4.36984785355597
C        61.74740351194921   -0.73988181929180   -2.70513123988752
C        60.50077345469342   -1.07519019058496   -3.32408482844323
C        59.54007850591108   -0.90074833378648   -2.38317009571970
C        60.20509013334762   -0.46115468449077   -1.19675873065627
N        61.55328954293692   -0.40055641957915   -1.38937468897842
H        58.46798732790774    0.94302794624068    2.39145895611242
H        60.37380691247892    1.25157264361959    4.28339863690091
H        64.42227153366194    2.99407243507344    3.80546765932224
H        63.61747587309725    4.12843626704443    4.90291347079533
H        62.69471251696700    3.30523287981529    3.63196629662422
H        63.40197613417548    3.24855606669703    7.06823613500402
H        63.93910592028033    1.26247373974446    9.43105737019131
H        62.24862903643053    0.76007829460101    9.54118817436582
H        62.65511855854854    2.46673077492744    9.27664197953804
H        62.44201733491398   -0.87276101482240    7.70945942116407
H        61.44933665034059   -1.62825775048211    4.51886334393910
H        63.17748539085223   -1.97651643320398    4.45934839721692
H        62.24589316440392   -2.37309989899640    5.91513039630884
H        65.51318712439952    0.25214406055169    4.47239239703554
H        67.43082272666325   -0.04208141377847    2.59059955241900
H        67.43231874023868    0.00111915712189   -2.66091265698386
H        65.52252947471715   -0.35959501923240   -4.53952346097522
H        61.43598760129187    1.46479975849437   -4.63272747419323
H        62.23159677770509    2.18768745050356   -6.04088784075689
H        63.16111392871641    1.82805656453876   -4.57415284671473
H        62.42827638288809    0.64971932623069   -7.80298833483534
H        62.66308712794405   -2.72096513137590   -9.29760216780021
H        63.93567234338548   -1.50966543897259   -9.48736607050247
H        62.24020005597741   -1.02416765593753   -9.59713828676380
H        63.43451176214383   -3.44655767546654   -7.07788529894813
H        63.66605891748747   -4.27776672859223   -4.89457008031013
H        62.74328519754018   -3.43480920343988   -3.63655928104858
H        64.46691524311628   -3.11220049507982   -3.82734737513843
H        60.38967627634135   -1.39445202921347   -4.34770750343119
H        58.47512827981140   -1.04322102936818   -2.47238475511880
Fe       76.38544508804632   -0.01186980212357   -0.01203731422053
C        72.96179041346994   -0.00980362487349   -0.01387071540220
C        73.63427774726189    0.02369272945726    1.21693178223965
C        72.96296661309698    0.03466396460009    2.47909594664145
C        73.92303060943753    0.16390034322575    3.42750198687826
C        75.17527572877530    0.23713637308954    2.73684739517517
N        74.98238042595892    0.11951829440955    1.38121137931733
C        76.38599184563429    0.48943134682857    3.36316485623200
C        76.39298303861864    0.68706136413615    4.83949330739930
C        76.17843608744003    1.95925499463734    5.37593585521085
C        75.93485669749900    3.12947274605207    4.46087806115315
C        76.19238262923787    2.12917718476596    6.75595657253555
C        76.41416103682238    1.05200158270103    7.60636969094726
C        76.44389939522281    1.24263763621487    9.09872665701807
C        76.62536726985485   -0.21069793550671    7.06014057025366
C        76.61764401317174   -0.40423674990111    5.68451899630742
C        76.84846464644241   -1.77219034327937    5.10012178466083
C        77.59472516216080    0.56926855004154    2.68481943499946
C        78.84287717044326    0.86828856242702    3.31906763642126
C        79.80093762092794    0.74965377428017    2.36709794424246
N        77.78565230688267    0.29872656187526    1.35292418646152
C        79.13337779347219    0.37418011564391    1.16016088984580
C        79.80781891333139    0.01804951145373   -0.01493056182040
C        79.13808113715103   -0.35552380078727   -1.18746783041814
C        79.81020688135621   -0.73106113157110   -2.39183710466425
C        78.85213054709982   -0.88374894167390   -3.33891401292081
C        77.59987028372423   -0.60167184940127   -2.70508526098031
N        77.78879879394941   -0.31005918039955   -1.37716754943810
C        76.38923366318227   -0.54749924610337   -3.38212059837304
C        76.39357462662505   -0.76714957067568   -4.85535594841849
C        76.58612008341379    0.31640962819414   -5.71806254743781
C        76.79105410728796    1.69763093757181   -5.15564718642274
C        76.58472059438357    0.10306491275159   -7.09080877804713
C        76.39528532986510   -1.17160927026312   -7.61676838754504
C        76.41178278068624   -1.38325265753098   -9.10650089637230
C        76.20721782749898   -2.24125403552506   -6.74875923844381
C        76.20339577736669   -2.05165964745211   -5.37127150110201
C        75.99612713235484   -3.21349311758291   -4.43680823188490
C        75.17734589863123   -0.29326824432852   -2.75865056016097
C        73.92559303643932   -0.22928322770790   -3.45104269881599
C        72.96558606964061   -0.07952503480208   -2.50568234610364
C        73.63601920184836   -0.05264051067928   -1.24329825466594
N        74.98407298249684   -0.15497157848122   -1.40515195093517
H        71.89518538291858   -0.04253961720840    2.60665644277650
H        73.80874230762838    0.21510897504288    4.49822332666971
H        76.76364767350053    3.24222953775117    3.75963922628708
H        75.82899498637779    4.05274559264119    5.02957450382405
H        75.02484250669482    2.97135703883031    3.87884516707022
H        76.02619522933934    3.11737639501229    7.17210466538128
H        77.47435131773113    1.20617352034872    9.45914644296367
H        75.88474963638556    0.45067798586446    9.59872527197697
H        76.01670137159866    2.20553157133522    9.37846785391893
H        76.79884862806233   -1.05668502292940    7.71714191211709
H        76.01050953148579   -2.05939182084674    4.46242726681928
H        77.75085157128014   -1.77346432014605    4.48564237803111
H        76.96143910597796   -2.51735296146178    5.88693382390066
H        78.95640351053584    1.12819765799728    4.35906422492683
H        80.86589212139295    0.88886055191497    2.46102292793962
H        80.87761900015997   -0.84845356629264   -2.48745410444561
H        78.96824676866395   -1.15485659557522   -4.37578648417720
H        75.94242005329147    1.98323216144620   -4.53137977405919
H        76.90041634827887    2.43065967574952   -5.95428011037470
H        77.68696571695098    1.72318001210005   -4.53236450448139
H        76.73193890605293    0.94322290029069   -7.76154029681334
H        75.98372360560852   -2.35076493575579   -9.36853740944279
H        77.43894354145203   -1.35070862555037   -9.47662975017507
H        75.84695013180739   -0.59935811885039   -9.61270310607008
H        76.05918964891249   -3.23886028796270   -7.14901787927013
H        75.88817379910618   -4.14487884461520   -4.99172304863389
H        75.09882436845703   -3.05918160946694   -3.83447404975079
H        76.84321184153346   -3.30770407979877   -3.75486680545718
H        73.81143045176228   -0.29927242433896   -4.52070231185314
H        71.89811600250152   -0.00138922508820   -2.63525015135126
