158
 energy: -238.543617919328 gnorm: 0.000812018716 xtb: 6.5.1 (b24c23e)
C           10.66752599550406       -0.13380290969740       -0.03706392046668
C           11.29477236568428       -1.37198765718338       -0.09116979039209
C           10.67284500134555       -2.65033135434171       -0.16694325571755
C           11.65860038866960       -3.59631635725924       -0.20477442392299
C           12.91396789135705       -2.92554992368653       -0.15334671856610
N           12.64389638550977       -1.58828546241025       -0.08466831694252
C           14.18373402259352       -3.50739676499067       -0.16920121529769
C           14.23023982623603       -4.99699872148669       -0.25463258846824
C           14.22427303695054       -5.62422565661911       -1.50373165523680
C           14.16243744032825       -4.79757424484853       -2.76055562654255
C           14.27783551334269       -7.01153566414182       -1.57218200731354
C           14.33796288846657       -7.78236647786024       -0.41594468659360
C           14.38210260701358       -9.28416215075831       -0.50161275142840
C           14.33811112128510       -7.14767979579249        0.82194983678429
C           14.28513933970275       -5.76185078764317        0.91411014362555
C           14.29116728182078       -5.08282743151017        2.25780099427261
C           15.39535859201499       -2.82044831373729       -0.11372861418618
C           16.68880352317732       -3.47952566721536       -0.13513207733322
C           17.61652437353963       -2.50230005337207       -0.06349096222094
N           15.55865717776772       -1.47053031389184       -0.03292051073577
C           16.88775529772630       -1.24986938968978       -0.00059932107928
C           17.52568148406637        0.00617649462118        0.07894904697896
C           16.87181475008790        1.25208594176898        0.13017953761071
C           17.48706164927149        2.53010135997074        0.20349967700377
C           16.49699786833993        3.47335677429856        0.22987348772879
C           15.24608991191927        2.79785866750319        0.17350327349455
N           15.52481283102610        1.45762334800941        0.11501784525772
C           13.97788733322718        3.38167735428448        0.17761749834366
C           13.93414438365300        4.87216462015301        0.24147460440070
C           13.97607277814991        5.62195751466630       -0.93750337907114
C           14.06023678161931        4.92565497222018       -2.26973441459418
C           13.94285167043491        7.00974930729020       -0.86664487772413
C           13.86924131433371        7.66132727646364        0.36007134424104
C           13.81831111740077        9.16400995062635        0.42328319925690
C           13.82298944274432        6.90508686590551        1.52669766478472
C           13.85482826916419        5.51630914296045        1.47956145509852
C           13.80696041669470        4.70585063230152        2.74742375147751
C           12.76478753860004        2.69254878067572        0.12638627568541
C           11.46500806175458        3.34551135809158        0.13391537162101
C           10.54371189209268        2.36247215671451        0.07630727656303
C           11.28036434750562        1.11113149768568        0.03162537783435
N           12.61463365525970        1.34804816776097        0.06351464522824
H            9.58267475985270       -0.15000603809197       -0.05342836324535
H            9.60672200249045       -2.81108186864213       -0.18933063440994
H           11.53936233569329       -4.66639023919706       -0.26200537990316
H           13.34766473334934       -0.85935312241472       -0.03728035403431
H           13.22316112620981       -4.24234581462876       -2.80208283009438
H           14.23250230547449       -5.42919247755216       -3.64561825898116
H           14.97896581042053       -4.07365625016042       -2.77993973937085
H           14.27656662091267       -7.49781407729028       -2.54224878297434
H           13.36754291939051       -9.68854506237261       -0.47374208039298
H           14.85038009845739       -9.60668763684143       -1.43182585863069
H           14.93726056862543       -9.70442642620418        0.33740959868803
H           14.38364098733842       -7.74107677091199        1.72931821357855
H           13.40589364870657       -4.45397362132295        2.36949675529397
H           14.30383502526694       -5.81556950996840        3.06410823047519
H           15.16975719763976       -4.44205906938779        2.35393736525443
H           16.83794519617854       -4.54548031677916       -0.19857169897969
H           18.69095871622874       -2.59298296465237       -0.05419706092039
H           18.55212281071837        2.69513694802133        0.23150582165768
H           16.61273865917797        4.54375779052656        0.28461583299833
H           14.82422487819643        0.72537692076506        0.06654549195536
H           13.99994406033909        5.64266902823851       -3.08794522702538
H           15.00282555408643        4.38078044353849       -2.35271380067500
H           13.24773826648110        4.20450640651559       -2.37382209194957
H           13.97709866526841        7.59119744240527       -1.78220437678883
H           14.26348546275762        9.52907226802732        1.34917305677548
H           12.78019548034808        9.50279548030878        0.38905822472844
H           14.34714907374317        9.60642171498890       -0.42129100175978
H           13.76361067391370        7.40467961566939        2.48815099862866
H           13.74048521687467        5.35359396162025        3.62104522686994
H           12.94213221902100        4.03985781613370        2.73888770494527
H           14.70273036348127        4.08827275183298        2.83690576197710
H           11.31103570116893        4.41204245799836        0.17688213811425
H            9.46801569171146        2.44388563254413        0.06256088551499
C           36.12703925390984        0.13049686783845       -0.03333373010954
C           35.50005663445772        1.36420619519971       -0.15296576373755
C           36.12226044336348        2.63711364078049       -0.29175922113845
C           35.13664329707655        3.57964862725151       -0.38237243626906
C           33.88108169559995        2.91212671147079       -0.30147274409952
N           34.15091293163777        1.58022730424153       -0.16314431914043
C           32.61138284254919        3.49225658336670       -0.35087544078930
C           32.56522903737292        4.97561879029106       -0.51190342146853
C           32.57585884514127        5.53913173552253       -1.79097020009560
C           32.64367962324568        4.65030429757555       -3.00430057840029
C           32.52162528914282        6.92119959723533       -1.92942822016815
C           32.45642288352003        7.74925925419365       -0.81374326784483
C           32.41097707560131        9.24478196795429       -0.97512390631478
C           32.45249947023507        7.17777304716939        0.45456415840801
C           32.50606197224954        5.79840328757265        0.61661605656391
C           32.49653401702226        5.18793790825712        1.99278976120286
C           31.39956773025640        2.80904198886254       -0.26234919157066
C           30.10613113843725        3.46610007930997       -0.31865175195808
C           29.17834056165736        2.49392736366855       -0.19663408295660
N           31.23612787583308        1.46504932224210       -0.11223543994823
C           29.90702534036932        1.24636016730598       -0.06899351981232
C           29.26860818840116       -0.00364066228312        0.07517252708126
C           29.92199369527382       -1.24563733676846        0.18934251010838
C           29.30663918224620       -2.51824846027090        0.32712918441305
C           30.29662878604442       -3.45904932536289        0.40087416713911
C           31.54757155227449       -2.78730725119446        0.31075482669038
N           31.26898005283142       -1.45174965246283        0.18447710539109
C           32.81569536729508       -3.37015763661357        0.34576187881117
C           32.85932106760919       -4.85544678527722        0.48534396688621
C           32.81818711338161       -5.66453493350688       -0.65375434378565
C           32.73368723620765       -5.03732419656816       -2.01985719071562
C           32.85237637277842       -7.04687167268258       -0.51198546278340
C           32.92602521100100       -7.63479388847441        0.74647363571264
C           32.97861165780697       -9.13220977000586        0.88648839867317
C           32.97076177808418       -6.81987245595296        1.87296277412889
C           32.93795872374045       -5.43536950070772        1.75483959385044
C           32.98392589653552       -4.56100880278214        2.97958346881230
C           34.02896043762417       -2.68441070889016        0.26294121349629
C           35.32864188283282       -3.33609740419730        0.30726703875555
C           36.25021963153995       -2.35700314709830        0.20465326708977
C           35.51383498765190       -1.10950617377991        0.09517728623085
N           34.17943175750257       -1.34468890753722        0.13384531366950
H           37.21194977366874        0.14603290771119       -0.04580888209321
H           37.18846497966526        2.79675247051143       -0.31790692579351
H           35.25605907988615        4.64539094791275       -0.49411894451133
H           33.44697865069567        0.85456287357333       -0.08084650255028
H           33.58364067739269        4.09475335434656       -3.01383006964327
H           32.57690083916149        5.23647798707577       -3.92034081188111
H           31.82790694016672        3.92541166676245       -2.99067139125991
H           32.52634002694285        7.35801294911572       -2.92274387946007
H           33.42500263267244        9.65132182885239       -0.96475842592939
H           31.94506381751597        9.51945011821025       -1.92174342723368
H           31.85289486842346        9.70610350279430       -0.15994781850105
H           32.40348094025747        7.81611239578690        1.33070926020257
H           33.38163356769965        4.56576672143675        2.13825052636269
H           32.48170058295570        5.96034846434459        2.76113783880775
H           31.61782027991999        4.55255436109911        2.11882947186086
H           29.95705248900750        4.52734127331636       -0.43729716715784
H           28.10387207225915        2.58475010590188       -0.19238584817476
H           28.24159657212126       -2.68174615329361        0.36345345774801
H           30.18078328400618       -4.52531120145848        0.50956731135536
H           31.96962665840461       -0.72286113295487        0.09979148333310
H           32.79482855315326       -5.79517345726698       -2.80033358954134
H           31.79054549956359       -4.49838601326612       -2.13071538648954
H           33.54545497889300       -4.32159474778504       -2.16057138024537
H           32.81895032322210       -7.67441253276077       -1.39662080376833
H           32.53361537967265       -9.44993249026465        1.82975411080547
H           34.01713728780221       -9.47106334147081        0.86987786731436
H           32.45054062460308       -9.61788202862301        0.06553676034766
H           33.02977408423086       -7.26960401300831        2.85874461015172
H           33.04804390710517       -5.16312743051874        3.88541833425250
H           33.84932227055100       -3.89695113350798        2.93873425669658
H           32.08849540310169       -3.93898768168149        3.03535099003591
H           35.48236361530396       -4.39919288348279        0.40335287837830
H           37.32595123720860       -2.43888034847158        0.19899643784643
C           18.92982803536561        0.02592510120539        0.10408787109284
C           20.15483654602621        0.02526278946984        0.12412587359718
C           21.49720796134633        0.01685262368851        0.14219277163297
C           22.72828987890077       -0.00182558111127        0.14845395128520
C           24.06608518159193       -0.01283706003212        0.14926721158804
C           25.29714335482533       -0.02880031351610        0.14078073558574
C           26.63957179344829       -0.03470098587199        0.12624126036423
C           27.86451541702619       -0.02233647602531        0.10404212269020
