177
 energy: -318.520980934903 gnorm: 0.000543116804 xtb: 6.5.1 (b24c23e)
Co          35.27068608047014        0.12308220622804        0.22925862158566
C           32.11830547043812        0.87807323896019       -0.59170119049840
C           32.87551280216152        1.85135846671571        0.03003615533538
C           32.37821716998236        3.13513117676979        0.42194948843766
C           33.35009310832162        3.71799347184815        1.16688230153599
C           34.46268741612047        2.81806488422256        1.16833279960066
N           34.15721205387081        1.67598685455977        0.48848884293264
C           35.73496085940269        3.14974046501428        1.64565318344802
C           35.90653864332086        4.34322109081514        2.37580837186272
C           36.04934759072519        5.35373761146181        3.03253745190398
C           36.21422459055633        6.53426181124754        3.79242850932448
C           37.47443420671600        6.92877398534822        4.25686694025002
C           37.58121859523523        8.09251544924247        4.99741873748233
N           36.53848079679182        8.86388690297469        5.29441057974543
C           35.33705059909683        8.49547616901186        4.85703109504474
C           35.12257978844749        7.35112783216626        4.10964524466596
C           36.85621083683477        2.39590368556622        1.29481404691056
C           38.20219014320227        2.86259791048741        1.40447254226373
C           38.98583895634241        1.93742398977802        0.79410610351450
N           36.82180022631395        1.17659383359986        0.67316690022612
C           38.12167403218820        0.87725258964873        0.37947625291564
C           38.57924485010410       -0.36937764297633       -0.06681458489931
C           37.73483559924397       -1.48728990845919       -0.08421148320437
C           38.19332723682538       -2.83778132342041       -0.15848056346530
C           37.10015689587824       -3.62983853584690       -0.01807335543802
C           35.97185808773333       -2.75722737706064        0.07385599237381
N           36.37820257928998       -1.44842584673532        0.06329506438304
C           34.64695240113446       -3.18585479040202       -0.01169172863832
C           34.36668721372754       -4.56765032613910        0.00453127930731
C           34.11949539189730       -5.75556761268172        0.02654947015590
C           33.83896017235853       -7.14103903323962        0.03864606470066
C           34.86063223765967       -8.08458492139167        0.19862306633198
C           34.53671653580478       -9.42953379271469        0.19803462676347
N           33.29240363054029       -9.87770600743917        0.05171826462155
C           32.31553404137890       -8.98718993529781       -0.10028517111654
C           32.53290252616770       -7.62083597959151       -0.11392905998095
C           33.60545961238978       -2.28531459216429       -0.26120691574495
C           32.29953609908837       -2.67095531293457       -0.70078188689875
C           31.62994390118552       -1.52676459010093       -0.98589550213274
C           32.50776166009857       -0.44471554321253       -0.65668043495847
N           33.72293900102799       -0.92778711505183       -0.23616836223248
H           31.12155365794404        1.13826373184055       -0.92866753571034
H           31.39782421833229        3.51230386932269        0.17798809103566
H           33.34421497850656        4.68366013330462        1.64674422929385
H           38.34994413533467        6.32941621449328        4.03835412757550
H           38.54630265907179        8.42221924632874        5.37122384560581
H           34.50860592164458        9.14800017897335        5.11727103835847
H           34.12695800617232        7.08812145283803        3.77337069439622
H           38.49210628732091        3.79581847251000        1.86011538714796
H           40.05669826061133        1.94140384818918        0.66901447732172
H           39.22494802590951       -3.13010053262961       -0.27005943894545
H           37.04442603927002       -4.70659050763834       -0.01391227364747
H           35.88778863591103       -7.76235772214999        0.31972044515652
H           35.30928949586439      -10.18337158002094        0.31915348642147
H           31.31255457275187       -9.38767756118355       -0.21644367300638
H           31.70773955946626       -6.93055427296500       -0.24095934470969
H           31.96438512441683       -3.69100774697102       -0.80066595516985
H           30.62240934562683       -1.40786893170102       -1.35150296013421
Co          55.94144847530117       -0.04942538996997        1.45749537753557
C           58.32396588334174        0.23020131650671        3.79245282870384
C           58.01582172543132       -1.03260092416573        3.32759869047011
C           58.70121713764112       -2.22555130242205        3.72333696341455
C           58.28337132491142       -3.20892063556978        2.88830955164850
C           57.29631543033307       -2.62837239024261        2.03052100666811
N           57.14335662984258       -1.30135290319047        2.30169110437008
C           56.51000908344523       -3.35959012491564        1.13383001502534
C           56.82965993724756       -4.70994017542158        0.88446361363034
C           57.11382901959109       -5.86607436308802        0.64923982077387
C           57.45455374011089       -7.21283279180537        0.38754779894921
C           56.69023347204732       -8.00171965761036       -0.48006980458285
C           57.07101737968492       -9.31292243118613       -0.70382634024792
N           58.13573579922630       -9.86893101293466       -0.13144935590509
C           58.86704399973553       -9.12580122437979        0.69530775890676
C           58.57264201726372       -7.80566864696587        0.98594929865617
C           55.34286410915166       -2.82316062189402        0.58964065597484
C           54.32291540325026       -3.60499776394518       -0.03511484726044
C           53.25995820599131       -2.78147846910234       -0.21752986511218
N           54.93227466761074       -1.52314208961097        0.72784254333455
C           53.65930760620889       -1.48675535135586        0.23538533434409
C           52.89844220024412       -0.32509805322430        0.04572861585902
C           53.48085649881473        0.94523786760413        0.14547306370140
C           52.88694607170181        2.13682485889113       -0.37245978898650
C           53.82602355358701        3.11232745806035       -0.28404808898301
C           54.96342801341820        2.52802718030820        0.35355061621416
N           54.74389222686192        1.19885576922249        0.60064550977449
C           56.07082743781908        3.25649000936120        0.79006459103635
C           56.20438903628389        4.60456093111255        0.39907107072091
C           56.32988243885090        5.75817961077313        0.04380223011913
C           56.47058271958950        7.10216250229469       -0.37152700081629
C           55.49461977532734        7.72177668455055       -1.16097932262117
C           55.67919081224125        9.03836678890162       -1.54387433549422
N           56.74717041024119        9.75308832835792       -1.19886495509995
C           57.67933111901601        9.17139333344509       -0.44836856153208
C           57.58977147406042        7.86174876726806       -0.01126622480576
C           56.97263018566191        2.72208134936418        1.71582023739554
C           57.90291317859766        3.50637972609914        2.46899639368067
C           58.44078011597004        2.68292494735144        3.40244630947625
C           57.88693576899515        1.38325843216557        3.17133111637201
N           56.97951506269830        1.42692789280581        2.14194115253996
H           59.04145443374553        0.32062587903093        4.59978808128663
H           59.43104290192939       -2.27778959960432        4.51551348468076
H           58.58257093008903       -4.24461318192763        2.86274690144634
H           55.81552806755152       -7.58862982445319       -0.96769176707555
H           56.49727414243399       -9.94772272458211       -1.37293900836028
H           59.72845754754611       -9.61107707136809        1.14505493288709
H           59.19522757420057       -7.23607694643758        1.66527035504694
H           54.40920101950366       -4.65481715885041       -0.26509076534768
H           52.30141992049641       -3.01044883910085       -0.65397431200608
H           51.89110425280004        2.19946406648796       -0.77961300494444
H           53.75508085052680        4.14512361373419       -0.58538924369047
H           54.60952259463871        7.17586065101437       -1.46456208553130
H           54.93790299915641        9.54421503645682       -2.15579706965779
H           58.53735054274956        9.78352602944375       -0.18571598283283
H           58.37231480833288        7.42723234773459        0.59889987052778
H           58.08262587468192        4.55816263679062        2.31327948853973
H           59.17077014368797        2.91073994237795        4.16281404955076
C           39.93621617590685       -0.51807419624944       -0.38712829088381
C           41.10562741118448       -0.60769775843583       -0.71790959204913
C           50.40892445553784       -0.55056170494855       -0.74485966325755
C           51.56960309273022       -0.44073524719574       -0.38904697471473
Co          45.75686242448455       -0.77715259943538       -1.67720826496348
C           42.45317514289323       -0.67880914754165       -1.09859914510960
C           43.10480474804044        0.49781698537941       -1.49239154427557
C           42.43062972523828        1.73367449301053       -1.73735723259897
C           43.31113370097569        2.53478905193348       -2.39092917222175
C           44.53633756309966        1.80739166029487       -2.48073495347449
N           44.39893452313386        0.56517520262707       -1.92692488382884
C           45.73437624101825        2.33697124368172       -2.96934675665700
C           45.71368871269001        3.57942453558531       -3.63475690369745
C           45.69244224795165        4.63690589831077       -4.22983814614534
C           45.66467281215019        5.87387490845089       -4.91360438670507
C           46.83830454973445        6.46247428339848       -5.39862143609768
C           46.75518563896247        7.67493338971699       -6.06007811396482
N           45.60703899971825        8.31659019314592       -6.26045980172933
C           44.48684906976655        7.76351665183082       -5.80250170018546
C           44.46096719241103        6.55513436462485       -5.12928618566593
C           46.96206111976272        1.73567719046664       -2.68455396551922
C           48.22268203397859        2.39236937582593       -2.82430816374741
C           49.13597691499106        1.61673382337738       -2.18561781545409
N           47.11563438321502        0.53787268556165       -2.03824270647158
C           48.44000473046344        0.46090928688030       -1.71831088342464
C           49.06632397694803       -0.65192913809149       -1.13682316978555
C           48.42065606643801       -1.89439089066396       -1.07911356470168
C           49.09398767107314       -3.13245767553417       -0.84791474587934
C           48.20523122925088       -4.11942498669148       -1.13046480910082
C           46.97478520150389       -3.47706232967508       -1.46535254131610
N           47.11869692613605       -2.11774956255666       -1.43228596499667
C           45.76871046872687       -4.15092228717123       -1.67922655082492
C           45.77995538847412       -5.55657841747791       -1.78872852828873
C           45.78891388887806       -6.76579485339438       -1.89139690880026
C           45.79903720373764       -8.17550288789890       -1.99774685193497
C           44.60810210760481       -8.90505292487674       -2.09138418904570
C           44.67334339585907      -10.28375309113429       -2.18796790018109
N           45.82005207971861      -10.95844182482906       -2.19712459055753
C           46.95651845994912      -10.27219415530820       -2.10885940456199
C           47.00086072425215       -8.89304699615575       -2.00781882555884
C           44.54285863631274       -3.48346716323374       -1.63400829209997
C           43.28146481148200       -4.14034538472902       -1.49829780306120
C           42.37107956605264       -3.17529836268665       -1.20982557036215
C           43.06981013780553       -1.93049369711993       -1.23428912973332
N           44.39340545381026       -2.12834546298311       -1.50402171219033
H           41.40411380330278        1.93620923261258       -1.47761566941373
H           43.16490696495709        3.53844097161590       -2.75668265729030
H           47.79452933391195        5.97358917151711       -5.25682734487759
H           47.64934239289838        8.15477611671126       -6.44735922974844
H           43.56844672248516        8.31439071924458       -5.98355810544489
H           43.52629076931778        6.13961868103117       -4.77267717558956
H           48.36939388529227        3.34198967184183       -3.31324489974885
H           50.19382306391682        1.78622928545487       -2.06849701726920
H           50.12401107425448       -3.22412370072990       -0.54431451535716
H           48.34887470566695       -5.18715845069311       -1.08846624541800
H           43.65238133786003       -8.39506524536797       -2.08671755270748
H           43.76551671672519      -10.87558397747622       -2.26110303446702
H           47.87323156471732      -10.85464511583616       -2.11914413166457
H           47.94857784472598       -8.37312775793712       -1.93733578978934
H           43.13250605529160       -5.20531526994035       -1.57595599230965
H           41.31488143926084       -3.28271780238624       -1.02309497998804
