258
 energy: -453.458878304205 gnorm: 0.000160572086 xtb: 6.5.1 (b24c23e)
C           34.88622931258097        0.09323116187940        0.03984998996452
C           35.49400105206769        1.23002905170548       -0.47726620429508
C           34.84117269572350        2.37396764368038       -1.01559484452027
C           35.80296465953796        3.26387630016329       -1.40369165132224
C           37.07457279084527        2.69724861106331       -1.10343267095878
N           36.83720705883140        1.46754040361470       -0.55799435802983
C           38.33720733391941        3.26064629509283       -1.32366544865692
C           38.36350808709550        4.62702610760983       -1.90017208087827
C           38.98698470632836        4.86712774664865       -3.12523321674587
C           39.00268814273132        6.13940574710385       -3.67519332379713
C           38.39590587930707        7.19364069102520       -2.99636272154349
O           38.38789943070520        8.45527167243727       -3.49823851658235
C           37.77428194751248        6.96887475146019       -1.76938868361183
C           37.75768763913303        5.69407719239902       -1.23186397193029
C           39.55333130728116        2.63357922021470       -1.04140160765558
C           40.84905179599259        3.26666376164592       -1.20973250650761
C           41.77195992532636        2.35351698733858       -0.84246883370926
N           39.71114044206519        1.36903041859252       -0.56094596740320
C           41.03904031148702        1.16816776467586       -0.44230956939567
C           41.67888574702187       -0.01211381869648       -0.01054220621817
C           41.04324557841021       -1.18803863253259        0.43240168964944
C           41.68647372073636       -2.38900256166056        0.83288868735017
C           40.71989105042551       -3.28062484814434        1.20805429768288
C           39.45535201906125       -2.64689329876416        1.05742657377738
N           39.70279167914178       -1.38800905189548        0.57562817415648
C           38.19494980383769       -3.19096546455238        1.32651265304969
C           38.16081874679136       -4.56554393540489        1.88135009111609
C           38.78059442495186       -4.85914601256809        3.09867495695534
C           38.74042445457495       -6.13831118840685        3.62445409237536
C           38.08120330227185       -7.15100248438115        2.92996036852911
O           38.06271520886111       -8.39514511997053        3.47342409991645
C           37.46367395465359       -6.87488170594068        1.71221583401019
C           37.50260016241476       -5.58856194568755        1.19735670116137
C           36.97833286667645       -2.53348369355256        1.11174427000823
C           35.67780120921784       -3.08691285695030        1.45605757263756
C           34.76187074846244       -2.16685566575503        1.09184390988638
C           35.50199412386852       -1.04786528599596        0.53663697564758
N           36.83383684450030       -1.29919144446535        0.57460123822739
H           33.80098958727253        0.10676414983570        0.05224633480303
H           33.77171130368243        2.48604267838640       -1.09673653113105
H           35.65008965775230        4.22542996873174       -1.86623540640449
H           37.56275262524579        0.82392136470510       -0.26045159971383
H           39.44737661540098        4.04488554887881       -3.66156067088934
H           39.48218693576676        6.31809526999891       -4.63164387328619
H           38.84984550463622        8.50024962172795       -4.34615836289817
H           37.31130883159108        7.79870084852935       -1.24982086428641
H           37.28629272806248        5.52336496413483       -0.27035640592051
H           41.00879452214929        4.27806268060987       -1.54682238748408
H           42.84573594839687        2.45077890381855       -0.82657522786569
H           42.75336043268982       -2.54377164648260        0.82532874215020
H           40.86637495849583       -4.29232858280344        1.54956811438668
H           38.98155078598401       -0.70970627138477        0.35354835468449
H           39.27997648855328       -4.06863453810330        3.64776480115010
H           39.21205766821704       -6.36611261251062        4.57237279011056
H           37.57610721698080       -9.01644931449297        2.91523385254947
H           36.95599635054742       -7.66710111615383        1.17245733752803
H           37.03205995583571       -5.37797100230281        0.24342612845213
H           35.51300281985230       -4.04315068188721        1.92605157021105
H           33.68794895847258       -2.20860943978010        1.18580958499194
C           97.46155208122812       -0.00288454941143        0.09794807487359
C           96.85253799421315       -1.06106006627739        0.76007364731309
C           97.50403972220543       -2.14641094417790        1.40982446679988
C           96.54139735667695       -2.95998060906410        1.93798598984624
C           95.27059687531894       -2.39123574622240        1.63817842708547
N           95.50923728330037       -1.25511265816361        0.91824833598549
C           94.00762905738264       -2.88474277058654        1.98657785383697
C           93.98068949486175       -4.12409373032006        2.80113666428409
C           93.35545343127731       -5.27509957907143        2.32019190569019
C           93.33907391159131       -6.43953144953702        3.07204944907508
C           93.94705860494513       -6.46210743707069        4.32513931118769
O           93.95442881461929       -7.58067984786977        5.09483805487155
C           94.57066555541789       -5.31806821694125        4.81978551432303
C           94.58782754433194       -4.16257139406705        4.05897549478438
C           92.79194336135004       -2.29833585682046        1.62583220292342
C           91.49599102202777       -2.79020856372340        2.05791655495930
C           90.57370599081580       -1.97257321935949        1.50907622877719
N           92.63493346054891       -1.19163932687460        0.84789259312491
C           91.30722461134552       -0.97745378341629        0.75135402780612
C           90.66815436345051        0.04826134173579        0.02469684624030
C           91.30413710543158        1.07501143640799       -0.69907013272878
C           90.66079529143038        2.08474227057374       -1.46272190335236
C           91.62807930839574        2.88734960508577       -2.00126974244426
C           92.89344983260210        2.39781144414710       -1.57378675041480
N           92.64539689003695        1.29627775840031       -0.79708522553793
C           94.15486559906032        2.91358514415239       -1.88975601536174
C           94.19037943353598        4.13735249506898       -2.72621815143073
C           93.58440981403332        5.31843389786186       -2.29035049984199
C           93.62468426585912        6.46390186090642       -3.06537741553313
C           94.27024899169777        6.44093761162295       -4.30034339213022
O           94.28877199877164        7.58177136668096       -5.03640137316025
C           94.87458494901222        5.26941018940212       -4.75064404574389
C           94.83551437298172        4.12904006908829       -3.96375057286772
C           95.37151072294184        2.35982034750742       -1.47527399142485
C           96.67369621673731        2.94424551663595       -1.75645162913648
C           97.58895187678284        2.12464084152366       -1.20091838831588
C           96.84695412623371        1.04685782443484       -0.57163215648994
N           95.51470930740328        1.22676863651089       -0.74830573688727
H           98.54688586567055       -0.00558785302789        0.10935450814520
H           98.57321336474966       -2.27992774197349        1.45383602173813
H           96.69306318180352       -3.87921806077949        2.48011737360883
H           94.78446091246221       -0.64749795374291        0.55123377959636
H           92.89415080163178       -5.26327164736518        1.33899423902373
H           92.85808535044740       -7.33330641984141        2.68934298785723
H           93.49092870591457       -8.30984257160444        4.66140316328694
H           95.03468070930762       -5.34810967333986        5.79789244310973
H           95.06080497432959       -3.26902570065733        4.45105081092731
H           91.33565781417309       -3.63606365500083        2.70667177302228
H           89.50002530236408       -2.01189066177756        1.60050567376408
H           89.59326712932319        2.17318257521491       -1.58447851607494
H           91.48136433665751        3.73782705732300       -2.64685655788687
H           93.36676786099943        0.72645225319533       -0.36751035657014
H           93.09579233034623        5.34215695564633       -1.32263629580899
H           93.16342948120078        7.38295789363570       -2.72558665828135
H           94.76514047686923        7.45688233887774       -5.86818267921673
H           95.37194262403590        5.25449591395378       -5.71454689610087
H           95.29546505775677        3.21449301297663       -4.32124106763216
H           96.84011896574744        3.86465653219860       -2.29272926505236
H           98.66365707624379        2.21862454425320       -1.19296220585621
C           43.08462633839025       -0.03064152658964       -0.01760138366031
C           44.30944809368888       -0.04934033156581       -0.01999865445477
C           45.65232133074035       -0.06460667812763       -0.02174024868765
C           46.88331351074535       -0.07719787282088       -0.02082579403427
C           48.22145022848748       -0.08750126953396       -0.01851299296762
C           49.45255869843707       -0.09349440518010       -0.01491337310332
C           50.79529209037253       -0.09750787117165       -0.00954173970330
C           52.02044918690208       -0.09565092251600       -0.00290296479556
C           61.70380808377240       -0.02804548545817       -0.02120510906782
C           62.92940195186909       -0.01922233910560       -0.01681490207788
C           64.27156637909309       -0.01261567002276       -0.01285513748206
C           65.50320149835055       -0.00579588521707       -0.00857692062347
C           66.84071753673638        0.00108028490092       -0.00468364014570
C           68.07236613658523        0.00775048608595       -0.00168323349462
C           69.41455224799572        0.01357230086157        0.00089013444470
C           70.64014077998893        0.02175873682386        0.00326569214919
C           80.32554385221810        0.08669956013905       -0.04287511000415
C           81.55057315334550        0.08845310776565       -0.03763617390912
C           82.89362817985921        0.08659035136740       -0.03137070257990
C           84.12460384450110        0.08418603576749       -0.02464219540895
C           85.46307551825292        0.07931282925664       -0.01672086576960
C           86.69397371485402        0.07361654125922       -0.00909592502316
C           88.03720227990524        0.06645935375528        0.00078414129942
C           89.26195887669357        0.05765292651638        0.01192347228197
C           53.42529067449088       -0.09559233694298        0.00851345977770
C           54.05881244779081       -1.20016728393735       -0.59354481703907
C           53.41677879443655       -2.29011781665202       -1.23535319200486
C           54.38757014384716       -3.12807686595901       -1.71232349120633
C           55.65174787545619       -2.57768634728599       -1.36644634186113
N           55.40168771409574       -1.41093165199522       -0.69436932645318
C           56.91433329963706       -3.09912442299064       -1.67657032050580
C           56.93092645823594       -4.39585220915142       -2.39839310279777
C           57.50106605061525       -4.49213837019156       -3.66823520958588
C           57.51158064413671       -5.69875540731641       -4.35041996965437
C           56.95398035151173       -6.83108680917634       -3.76103327960839
O           56.94445797084314       -8.03291006975745       -4.39240541882245
C           56.38508528962901       -6.74958211177248       -2.49129279694761
C           56.37243065644964       -5.53908925390723       -1.82135257263420
C           58.13807251147293       -2.50306826280689       -1.36665187545396
C           59.42621210091519       -3.11001449749690       -1.65099901800483
C           60.36287590438864       -2.25204098643110       -1.19615446744488
N           58.31429993861257       -1.30717293137255       -0.73892472278613
C           59.64598898077086       -1.12852053568267       -0.62699899256528
C           60.29960879580707       -0.03151747348874       -0.02851002854456
C           59.66556049814959        1.06682912653366        0.58543081693881
C           60.30744129889047        2.15063836358276        1.23775529140167
C           59.33666699824561        2.98542498135692        1.72037244083146
C           58.07257581817591        2.43979838571038        1.36689164461928
N           58.32286658770685        1.27784087488303        0.68602317402809
C           56.81003991241828        2.96253824783147        1.67387166205760
C           56.78983128811459        4.25328469484526        2.40594559259527
C           57.35480704189289        5.40115550836958        1.84477164050908
C           57.33372869119337        6.60620929274813        2.52433583900086
C           56.74966920235223        6.67749617246608        3.78779623839247
O           56.75019466029671        7.87442686415366        4.42837622608867
C           56.18607444500910        5.54019563079638        4.36176979203782
C           56.20506969307817        4.33925383015104        3.67001260848807
C           55.58617732263147        2.37245360184658        1.35175764923808
C           54.29842955583526        2.98512748103083        1.62569754729265
C           53.36174057482867        2.13109086270255        1.16365153561644
C           54.07829531603366        1.00379829844985        0.60180496305277
N           55.41022688522866        1.17784184824004        0.72262148359075
H           52.34869113408734       -2.40586723400494       -1.32454605606257
H           54.24177385479006       -4.04059986505070       -2.26685065180590
H           56.11782614584351       -0.78839941960315       -0.33535661681679
H           57.92390359175202       -3.60867823742422       -4.13340141395621
H           57.94961411735508       -5.76568409280027       -5.34050061801956
H           57.36719414119084       -7.97894267800680       -5.26003774056521
H           55.95958507568542       -7.63889370540046       -2.04303984322266
H           55.94165224312307       -5.47961702408334       -0.82803923619771
H           59.57282345516284       -4.07022959333651       -2.11835401365307
H           61.43629343121924       -2.35096303679777       -1.22194755791376
H           61.37545671189257        2.26472297744341        1.32979866241628
H           59.48229224015307        3.89304005291004        2.28295576374478
H           57.60670557867316        0.65898554601648        0.32075475446139
H           57.79651378542580        5.35011001834097        0.85580365147607
H           57.76361456248301        7.49936794383590        2.08808004363185
H           56.31616485838319        7.81357813873089        5.28997451448001
H           55.73617565950633        5.59904126100527        5.34702985605788
H           55.77673906746931        3.45200232752235        4.12278676495896
H           54.15210592630613        3.94639914490633        2.09093606749452
H           52.28860129449789        2.23463516037689        1.18091327621616
C           72.04437006766364        0.02441739333325        0.00731341994734
C           72.67648712143631       -1.07344100948031       -0.60942681953950
C           72.03282006458332       -2.15739018785067       -1.25976169880473
C           73.00228726024038       -2.99181276507084       -1.74559250744912
C           74.26739693403383       -2.44563482319382       -1.39646520933855
N           74.01894562697281       -1.28392402391177       -0.71456400704435
C           75.52888735536789       -2.96770098285607       -1.70861882899024
C           75.54654056799488       -4.25908529549867       -2.43977626935401
C           76.12409963870459       -4.34586670597482       -3.70705024772478
C           76.14169732897891       -5.54797730449329       -4.39685752227418
C           75.58399366830230       -6.68551256713372       -3.81764415877821
O           75.58289549301752       -7.88369443261458       -4.45601142873957
C           75.00670746879436       -6.61327352785826       -2.55114741283012
C           74.98691617864031       -5.40708358303217       -1.87356207236616
C           76.75405233768603       -2.37740723432788       -1.39174639284744
C           78.04071853087336       -2.98936438002404       -1.67264584823475
C           78.97933986631192       -2.13607930005368       -1.21320652845167
N           76.93261784567899       -1.18391762387226       -0.76147561552038
C           78.26514913380097       -1.01011922595504       -0.64567178945852
C           78.92030485808908        0.08699972615830       -0.05096745736911
C           78.28876364089329        1.18952487489352        0.55660521497073
C           78.93261738224328        2.27756250105796        1.20000449634224
C           77.96320934896399        3.11386772107103        1.68244438927446
C           76.69797161217537        2.56452917727605        1.33845658335098
N           76.94612918244515        1.40001523918106        0.66183375547054
C           75.43647238284960        3.08512591416114        1.65402604609825
C           75.42239275571929        4.37891409306791        2.38125981112253
C           75.97778865743551        5.52491037499917        1.80677539862723
C           75.96767756055598        6.73236335584788        2.48223025379750
C           75.40469776362404        6.80786785823339        3.75498686581454
O           75.41680413726370        8.00676286648020        4.39174880595953
C           74.85014678040582        5.67268340173699        4.34177631267592
C           74.85790207859834        4.46920883207979        3.65405152106008
C           74.21147136863425        2.49084263509256        1.34559373812888
C           72.92463106415163        3.09789661847394        1.63564966360112
C           71.98596088259997        2.24215639320404        1.18073582992983
C           72.70031822002724        1.11978304760136        0.60618110689077
N           74.03250577340209        1.29707414840852        0.71474478426360
H           70.96453739267049       -2.27190683059319       -1.34814448308429
H           72.85519815201674       -3.89955594788451       -2.30759774973983
H           74.73590124053246       -0.66487391133803       -0.35119424923689
H           76.54802736776972       -3.45849295391903       -4.16371469369368
H           76.58612013164402       -5.60758942937810       -5.38455827212573
H           76.01210858734004       -7.82331423770554       -5.32004046519039
H           74.58117472677412       -7.50657636320549       -2.11093905617120
H           74.55050986172436       -5.35514423291589       -0.88229182797187
H           78.18511624174164       -3.94964514659529       -2.14053135658852
H           80.05241637503285       -2.23938594099043       -1.23543346833316
H           80.00094888540526        2.39309674980290        1.28645708034983
H           78.11050031305929        4.02469173615819        2.23935970211922
H           76.22912909436336        0.77836177906119        0.30303614979959
H           76.40412267820626        5.47003220826531        0.81128087432631
H           76.39074862341936        7.62387840313693        2.03606435853526
H           74.99893246320201        7.94858377504788        5.26146928870406
H           74.41667850038020        5.73493193038427        5.33416403285115
H           74.43738343464901        3.58348068582727        4.11700261293117
H           72.78023031398060        4.05670871770730        2.10656028641512
H           70.91269487572114        2.34178609385932        1.20996954226353
