310
 energy: -541.215255921609 gnorm: 0.000582912340 xtb: 6.5.1 (b24c23e)
Zn          38.99741462389294        0.06252817635509       -0.03402510813484
C           35.58572044763241        0.19127211082422       -0.11636214180444
C           36.21689607685099        1.04570313448712        0.78010873001528
C           35.54700130920949        1.95566846223826        1.66763052650243
C           36.50849880894349        2.59743856090915        2.37752154053707
C           37.77762628921112        2.09070213788409        1.92847907238987
N           37.56548784885214        1.15144853798246        0.96268301227713
C           39.02687725987766        2.48298638806876        2.41976273330921
C           40.26320633287932        1.98641535357319        2.00228844072877
C           41.54037045879949        2.42253829095763        2.49472327204895
C           42.48897423461563        1.72164398453025        1.82313376469499
N           40.46058181731544        1.03060224877397        1.04087997053385
C           41.80159298954387        0.85158629272537        0.91295887123298
C           42.43415647447114       -0.04235555617919        0.02451197392466
C           41.77831894631871       -0.90770840469459       -0.87518351620283
C           42.44191072444223       -1.83267077031842       -1.74800293375095
C           41.47572725414576       -2.48678356216790       -2.44121145089868
C           40.21146335463983       -1.96227797516943       -2.00448426746017
C           38.96191530491898       -2.37710278300100       -2.47042872814567
C           38.94279493404737       -3.43804582431603       -3.51861318784121
C           39.37855092783536       -3.15906599163824       -4.82049661119152
O           39.79758480902768       -1.88519898210380       -5.04620474293047
C           40.26974109984831       -1.50318520513122       -6.32202642245740
C           39.35571637125953       -4.15121526839803       -5.80027545845838
C           38.90017771992141       -5.41944698229054       -5.47324360873525
C           38.46476851007351       -5.71949348878858       -4.19128722797733
C           38.48419144851223       -4.72608427411255       -3.21285367446704
O           38.08486041288155       -4.92460961222701       -1.92791378390734
C           37.59405701091818       -6.18473948655639       -1.51832766074795
C           37.72377516295632       -1.88547571213933       -2.04316154650253
C           36.44290852620119       -2.29395987320682       -2.55499129364262
C           35.50016003115573       -1.57302649649844       -1.89806930149971
C           36.19354062425153       -0.71265197071765       -0.97974971961803
N           37.53734870591629       -0.92449445022191       -1.09360254489897
N           40.43396563181135       -1.00675081859145       -1.04821218115153
C           39.03772027698771        3.52830140044605        3.48428768244660
C           39.34909392757228        3.18864522507959        4.80691067513742
O           39.62289953560161        1.87603930403171        5.03328437981031
C           39.94866769277790        1.42781903698549        6.33309502819861
C           39.35499994949386        4.16469983765478        5.80301190490627
C           39.05299981828575        5.47672043947533        5.47063466965380
C           38.74283265563859        5.83659304663589        4.16784370628728
C           38.73297993628147        4.85937049183423        3.17295151661856
O           38.44685370151299        5.11262478468421        1.86775696080816
C           38.12979447924611        6.42382223797077        1.44734278697379
H           34.50106415305608        0.23341942556011       -0.14419234119607
H           34.47663824560708        2.07623701892005        1.73254765485197
H           36.37781606786493        3.34840482260421        3.14048686511376
H           41.68680054149918        3.17230601028527        3.25578490785921
H           43.56081810793136        1.78289313780607        1.92692583970763
H           43.51083755820727       -1.96210840036497       -1.81148450647866
H           41.60274129810363       -3.25808928733494       -3.18388498407097
H           39.49048108827782       -1.60713225809203       -7.08695830112211
H           40.55231842408701       -0.45200247227387       -6.23928934760758
H           41.14812338123348       -2.08974615118768       -6.61765137087631
H           39.68669840885201       -3.94478070981559       -6.80931112048073
H           38.88366250699973       -6.19142917557944       -6.23478350178978
H           38.11599984615319       -6.71801510093616       -3.96405432090464
H           37.33596827531020       -6.08197727911405       -0.46260123434617
H           36.69693649847677       -6.46913106078392       -2.08180463847449
H           38.35425180287918       -6.96778355376523       -1.62821958728752
H           36.29180940425855       -3.03713035397467       -3.32173290605886
H           34.42836048444354       -1.60921524823330       -2.01788753654499
H           40.12637605943095        0.35405453709121        6.24872313820978
H           39.12519952777192        1.60203960906059        7.03645462680730
H           40.85635151930971        1.91431370749050        6.71039001398867
H           39.59068191418861        3.91257700892022        6.82828530128414
H           39.05919991501053        6.23622823500438        6.24479114916211
H           38.51248302344338        6.86820348438428        3.93754184697507
H           38.96137927369655        7.11608924443412        1.62750743074374
H           37.94179566194498        6.36180438252042        0.37383881588872
H           37.22986681413716        6.80050713241083        1.94881608181855
Zn          94.88115282798856        0.00222140446100       -0.07993866955115
C           98.29103219068216        0.14133738186834       -0.20550330603881
C           97.66543042620587       -0.62380400334658       -1.18289771172732
C           98.34048487029939       -1.35729145199923       -2.21769599662246
C           97.38352957721260       -1.97223252053087       -2.95686869698919
C           96.11199096650542       -1.61729747573533       -2.38564558669898
N           96.31830186414042       -0.80232488285693       -1.31174016747953
C           94.86585386431634       -2.05425363741183       -2.84624874399117
C           93.62734888509982       -1.72671051587033       -2.29104087102301
C           92.35307768786402       -2.15555854657322       -2.79713515861058
C           91.40082335464136       -1.60753216424551       -2.00023914185091
N           93.42461749904963       -0.92563137367778       -1.19833989942421
C           92.08309846355641       -0.83788319467116       -1.00026662105263
C           91.44572846266469       -0.10883561403527        0.02492577072546
C           92.09649805250730        0.64957791648005        1.01984345604569
C           91.42841143458479        1.36176631856018        2.07059102908091
C           92.39032902343783        1.96053942654041        2.81770284957172
C           93.65624577212365        1.62587836896878        2.22646854480156
C           94.90246581308202        2.04239476661009        2.69962786108991
C           94.91446580692367        2.92425306148727        3.90250831924214
C           94.46250913808302        4.24753275354532        3.81656457783698
O           94.03577659715529        4.65051012939803        2.58990418105922
C           93.54729993501118        5.96243177890014        2.39790014964108
C           94.47791400642858        5.07304303550050        4.94041791048177
C           94.94229037256919        4.57069579902317        6.14661633420858
C           95.39373481468311        3.26410326366095        6.25622729891473
C           95.38171293287874        2.44010615777396        5.13125814185477
O           95.79680784037214        1.14488760325503        5.13999458704714
C           96.29406548201840        0.56167123550892        6.32707226464973
C           96.14258967295349        1.71003643022202        2.14401651091893
C           97.41965267230748        2.17121353697586        2.61917614748017
C           98.36587895105365        1.64079189825243        1.80467417996372
C           97.67835685508744        0.85270560960393        0.81949395350047
N           96.33456027042847        0.91700332101294        1.05119770998376
N           93.43922724957659        0.82258349679095        1.13807270809632
C           94.86060581336744       -2.94846491180924       -4.04047948607223
C           94.55622624563830       -4.30887525378591       -3.90486727310712
O           94.28429909810838       -4.73275274383092       -2.64174872649323
C           93.96267365206847       -6.08652434527834       -2.39588850608899
C           94.55494333103995       -5.14585650131653       -5.02039480242472
C           94.85435173897697       -4.61727336506811       -6.26698670489352
C           95.15736662536985       -3.27339023545292       -6.42563033177826
C           95.16262060943713       -2.43776558037499       -5.30916259413823
O           95.44117163188602       -1.10765057075924       -5.36203028620714
C           95.75396227645129       -0.49164690727244       -6.59456143535636
H           99.37510699563890        0.18755784188275       -0.24648662363832
H           99.41095713106323       -1.39228108586989       -2.34920513907830
H           97.51882838555458       -2.61189646548368       -3.81457396208751
H           92.21086382342398       -2.79264236803618       -3.65544393260485
H           90.32967657418919       -1.70901942108908       -2.07586260461312
H           90.35968149961711        1.39056355372642        2.21332343851702
H           92.25941842571801        2.57557889096059        3.69361817572411
H           94.31791862069787        6.71358893442624        2.61020163095047
H           93.26189781134518        6.02956598126411        1.34636105702790
H           92.66765454548580        6.15917940859787        3.02279521498066
H           94.13438614230596        6.09727933392678        4.88351101829755
H           94.95307432801282        5.21213950067651        7.02103105517939
H           95.74916088988580        2.89854500520479        7.21035368478020
H           96.56296856060487       -0.46512145955057        6.07190654540352
H           97.18572984545314        1.08726110873289        6.69021992069876
H           95.53409450596806        0.54857179881747        7.11789438432647
H           97.56596070164686        2.82021314309033        3.46795327951409
H           99.43639889276992        1.76710107027637        1.85417080294486
H           93.78370993321563       -6.16625377312722       -1.32197810161252
H           94.78872513493981       -6.75269742487307       -2.67340244660417
H           93.05674156421533       -6.38879822954386       -2.93515114390416
H           94.32478719311784       -6.19869299353112       -4.92629542664341
H           94.85170140333176       -5.26767350636419       -7.13484142687124
H           95.38568367565081       -2.88843096507669       -7.41051052464864
H           94.92266683152697       -0.57023925130808       -7.30585710584811
H           95.93531628336416        0.56128145749829       -6.37081349597132
H           96.65652768630673       -0.92460889762480       -7.04307146419695
C           43.83909973742040       -0.06977575702621        0.03390762941611
C           45.06407135361420       -0.08158038530085        0.03349222204161
C           46.40710074668529       -0.08863545631443        0.03041545721044
C           47.63814527043122       -0.08909406716956        0.02287640307782
C           48.97646928221204       -0.08416806450266        0.01489313817260
C           50.20752952057574       -0.07456647477848        0.00514594481032
C           51.55034583491374       -0.06169831218039       -0.00445846942272
C           52.77535903856060       -0.04675517539817       -0.01347724129560
C           62.47350363715206        0.00759780049817       -0.05002117146516
C           63.69899349497255        0.01554221266423       -0.05155157660480
C           65.04119540481392        0.02237255468061       -0.05345320602513
C           66.27267174480448        0.02595787951090       -0.05324376589907
C           67.61024756675792        0.02824713895999       -0.05324754103691
C           68.84166931545315        0.02645782154991       -0.05144281535111
C           70.18384956970243        0.02564040908034       -0.04393141738150
C           71.40934237479262        0.02255372729007       -0.03620024884906
C           81.10563130929295       -0.10226816104205        0.04241326104596
C           82.33065345259136       -0.12113644788240        0.05417246006588
C           83.67320558172000       -0.13766501073305        0.06485719771102
C           84.90430607707700       -0.14818132434508        0.07246160155326
C           86.24241396527138       -0.15553940183526        0.07720372627412
C           87.47354307946733       -0.15667515857779        0.07556306304759
C           88.81635583603500       -0.14971727418643        0.06902012802940
C           90.04130202789099       -0.13593505166793        0.05342083484237
Zn          57.62480925190440       -0.01378686495579       -0.03201381889904
C           54.18004418366948       -0.03490987262186       -0.01904148400951
C           54.83019942129891       -0.03102267630309        1.23238017641821
C           54.16004558511574       -0.05242123156227        2.49965939254707
C           55.12254084637117       -0.04312428220592        3.45709467581850
C           56.38964763459653       -0.01154468692438        2.78272929220097
N           56.17470903937654       -0.00846552523180        1.43041875839243
C           57.63758021141701       -0.00704188098769        3.41115796512620
C           58.88052595125989       -0.00422452722337        2.77327685605790
C           60.15270418264208        0.02705693665100        3.43806436929055
C           61.10808166122751        0.03066261679426        2.47346934460585
N           59.08552350158301       -0.01209732419839        1.41926075479552
C           60.42839173291190        0.00602036896781        1.21139844209041
C           61.06959169098845        0.00103594095891       -0.04493807063728
C           60.41898832641517       -0.01005633641907       -1.29628579590845
C           61.08967912597969       -0.03189147589077       -2.56316122622362
C           60.12736197831406       -0.03578807295366       -3.52075002410745
C           58.85966454265485       -0.01106367435200       -2.84697328979628
C           57.61183625256042       -0.01472042950570       -3.47594517112075
C           57.60743715870991       -0.00684815851623       -4.96750102804490
C           57.19282202898749       -1.13753386505054       -5.68330181369305
O           56.81755569126372       -2.20944406223024       -4.93553636862621
C           56.36655206027001       -3.39419324461600       -5.55998425903409
C           57.19234758062231       -1.12856473509465       -7.07783923766630
C           57.60255767916537        0.01237955914488       -7.75075363705216
C           58.01535632521108        1.14404078210946       -7.06382534633566
C           58.01974959201240        1.13357113344709       -5.66943512402053
O           58.39802213160154        2.19460293189220       -4.90788659897362
C           58.85756721723357        3.38446573207496       -5.51619887377068
C           56.36857924537672       -0.02167555175259       -2.83771643895222
C           55.09577690106737        0.00150631337326       -3.50181147799961
C           54.14077111597791       -0.00546695852386       -2.53694248618843
C           54.82100166268075       -0.02656871636477       -1.27508666533187
N           56.16419001338224       -0.03340442827822       -1.48375708533107
N           59.07449288878634       -0.00138719039677       -1.49452007040233
C           57.64369854864033       -0.00958777266145        4.90298344541536
C           58.04334538041638       -1.15336254979671        5.60620158108845
O           58.40188904176890       -2.22193573887449        4.84572390605519
C           58.83689996898633       -3.42013646657814        5.45557094670970
C           58.04719173885930       -1.15848770255642        7.00067646073910
C           57.65573161075174       -0.01797482616762        7.68550242438562
C           57.25875799887834        1.12664560888077        7.01081121491928
C           57.25057605250249        1.13007664327117        5.61625982579568
O           56.88610755548731        2.20364200603070        4.86563057301379
C           56.46286334805105        3.40000084664685        5.48736474009574
H           53.08978786270767       -0.07510053775930        2.63113498306464
H           54.99046733861859       -0.05808590935061        4.52709920473817
H           60.29275642023543        0.04564146855246        4.50699792545076
H           62.17936996696421        0.05096068138603        2.59683900879193
H           62.16016309972711       -0.04571355542726       -2.69423378746837
H           60.26033660444199       -0.05564273740300       -4.59052297526134
H           55.47293843121434       -3.21199838960765       -6.16919650238027
H           56.11546940306202       -4.08606111175197       -4.75384178246290
H           57.14778386377644       -3.84068316192098       -6.18709789482476
H           56.87784845181592       -1.99779182447090       -7.63980167414520
H           57.60058154053337        0.01977862222477       -8.83521833083667
H           58.32799833677270        2.02097337347207       -7.61474452023271
H           59.11294341315491        4.06359223685930       -4.70061158949030
H           58.07995557811749        3.84491281742621       -6.13768738604016
H           59.75032621637174        3.20403346101400       -6.12718129069981
H           54.95471408323999        0.02200986377642       -4.57053192591486
H           53.06929952634403        0.00704045917633       -2.65986258836511
H           58.05099678119366       -3.86179963223320        6.08024138707167
H           59.07496236701822       -4.10663223468665        4.64093833792333
H           59.73505626776198       -3.25815382926987        6.06380412632237
H           58.34996851622765       -2.03784323303139        7.55323392740472
H           57.66017199321350       -0.02124228371829        8.76998861398008
H           56.96087980005204        2.00263468146553        7.57134191425757
H           57.25773912242467        3.83475398340969        6.10553419014430
H           55.57115667700433        3.23808001855763        6.10496991366032
H           56.21824356065530        4.09228334003373        4.67960677299982
Zn          76.25753840071535       -0.02403129251211        0.00258607575111
C           72.81320988580973        0.01481814732345       -0.02597728826078
C           73.44869259964382        0.00021225229665        1.23320117675797
C           72.76292145087464       -0.01582671679671        2.49211799364744
C           73.71377763213921       -0.02214609459845        3.46114105312125
C           74.98930830288258       -0.00642431273883        2.80229560058082
N           74.79067467466899        0.00223178904596        1.44727986265355
C           76.22928570421102       -0.01754339183113        3.44588227387754
C           77.47987713747358       -0.03334974981396        2.82276244821744
C           78.74450449590432       -0.01882588345496        3.50228443716011
C           79.71103672471966       -0.03535028633913        2.54899025781976
N           77.70039844503957       -0.04960670356117        1.47142001302694
C           79.04589778668101       -0.05472648461907        1.27912791950106
C           79.70137888943889       -0.07906669980924        0.03069267812106
C           79.06595549239957       -0.07941283341946       -1.22826333311126
C           79.75107424174784       -0.11531642118087       -2.48708660605463
C           78.80052939591256       -0.09445617957103       -3.45620157589754
C           77.52580476503969       -0.04137414240508       -2.79761619866932
C           76.28579953201120       -0.01479683511929       -3.44170409205774
C           76.29912433201048       -0.00463609815064       -4.93325941912010
C           75.87127931458519       -1.12687296912238       -5.65461255077491
O           75.46760675352344       -2.19180959291830       -4.91175107785670
C           74.99867260545206       -3.36663189730729       -5.54183504887745
C           75.88613184508023       -1.11700346738701       -7.04903348468424
C           76.32500334021030        0.01653900630652       -7.71635878280116
C           76.75115824689281        1.13983903641554       -7.02390786387647
C           76.74007258072419        1.12844279448801       -5.62950299727640
O           77.12946243971723        2.18195066453954       -4.86308745787031
C           77.60847840283785        3.36679255325411       -5.46620303021437
C           75.03527037340152        0.00307681611368       -2.81858639856013
C           73.77121509400169        0.05354873553776       -3.49769305738159
C           72.80471470361279        0.06011120357697       -2.54429851716821
C           73.46930755541362        0.02076402550900       -1.27458619089626
N           74.81427853838288       -0.00992537798193       -1.46704746952070
N           77.72432255474742       -0.03926373626581       -1.44279462358289
C           76.21706021842736       -0.01303224108859        4.93759174531645
C           76.59900477010775       -1.15539116385171        5.65290135535107
O           76.95775048023813       -2.23215162362180        4.90410593035690
C           77.37731801649460       -3.42886420949993        5.52765091166358
C           76.58584308896880       -1.15148936623761        7.04737344958435
C           76.19512455977576       -0.00368034730442        7.72028545291905
C           75.81473188200681        1.13944759015610        7.03359797947060
C           75.82345519679286        1.13390121992952        5.63911479546626
O           75.47598345605783        2.20533178759125        4.87744478467190
C           75.04636321485785        3.40611531821059        5.48610868467395
H           71.69091941683604       -0.02360835902230        2.61057101897664
H           73.56849850129800       -0.03807268277037        4.52940952016268
H           78.87248061263374        0.00263156951246        4.57266258899289
H           80.78098674616976       -0.03165840397062        2.68488433798670
H           80.82243075668445       -0.15406912797516       -2.60536148886805
H           78.94573437159829       -0.11501447983061       -4.52438518725054
H           74.11390123057876       -3.16592831381840       -6.15813057331248
H           74.72732091182074       -4.05453024905947       -4.73887370791749
H           75.77616786880510       -3.82755149153647       -6.16314024648129
H           75.56144620824385       -1.97976688590373       -7.61514923425693
H           76.33516352017679        0.02470806075816       -8.80077501717297
H           77.08614988553509        2.01108848821960       -7.57069181624765
H           77.86538230112507        4.04196372491354       -4.64780975685989
H           76.84153395919898        3.83722521214999       -6.09349668487683
H           78.50394969563865        3.17635136513830       -6.07016783889619
H           73.64344807001191        0.08120867551262       -4.56792948239913
H           71.73520975984071        0.09276958184850       -2.67991764500767
H           76.58026309032483       -3.86180603245603        6.14427106504424
H           77.62256468027577       -4.12208449237558        4.72090198917477
H           78.26788764252115       -3.26807149977082        6.14716946013306
H           76.87489058619597       -2.02962971214088        7.60917204702576
H           76.18680524068891        0.00002277207428        8.80474598421611
H           75.51670858204129        2.02125599489236        7.58483395858778
H           75.83251276950783        3.84222815772550        6.11438762248726
H           74.14458930053527        3.24973008471249        6.09044085622343
H           74.81629776806510        4.09464325458703        4.67088832938313
