244
 energy: -472.776553573877 gnorm: 0.000589061556 xtb: 6.5.1 (b24c23e)
Zn          52.23974006931034        0.00067597549000       -0.07519376281359
C           48.82996353353711       -0.01501637845362       -0.09081386425871
C           49.45540148911242       -1.23766166369262       -0.30092668638372
C           48.77693425713223       -2.49028374071322       -0.48474229025920
C           49.73169290534077       -3.43539633663867       -0.66832136250567
C           51.00620849114215       -2.76813627385060       -0.61124642839025
N           50.80383189255065       -1.44093740960555       -0.37418979275115
C           52.25637075011027       -3.38324382015159       -0.75541556957489
C           52.26371772384783       -4.83685952352331       -1.04270809990186
C           52.87896238341111       -5.72802445598493       -0.15761622193320
C           52.87880615249614       -7.08698863827442       -0.41323186921353
C           52.26287049272397       -7.56044555139015       -1.56842179886658
N           52.25778194920107       -8.98641345214713       -1.84115252811844
O           51.70729137566375       -9.36011570129923       -2.84523654100430
O           52.80267878800195       -9.70826871710530       -1.04589051401639
C           51.65021816286692       -6.69029433517700       -2.46586990043976
C           51.65133151668930       -5.33373941288892       -2.19771191862583
C           53.49893265757295       -2.74622336941674       -0.65143801588355
C           54.77223919639061       -3.37106589443642       -0.88093867667102
C           55.72239856093339       -2.42087139020715       -0.69051260778921
N           53.69938755243383       -1.42766786508630       -0.34458144871929
C           55.04221019665932       -1.20690915116707       -0.34727980945204
C           55.67971475312766        0.01505727512410       -0.05282868163582
C           55.02845378766627        1.23230145839860        0.23040871083450
C           55.69401513143598        2.45273722234412        0.57926673098300
C           54.73356821639450        3.39514901466555        0.75617758499814
C           53.46842369168487        2.75889181437061        0.51312365398060
N           53.68390200869373        1.44175000933166        0.21037735800435
C           52.21907849760516        3.38449386942617        0.60476937742622
C           52.21053037904976        4.83712856439460        0.89729151498829
C           51.58515658791143        5.32259704826124        2.05019561044689
C           51.57243055438320        6.67736973561813        2.32679987331232
C           52.18585892923780        7.55736070610247        1.43954144707472
N           52.17054873268305        8.98130014876251        1.72232051737819
O           51.61963196466748        9.34371086871004        2.73031899721378
O           52.70846201949074        9.71286072159542        0.93119167305802
C           52.81296664804833        7.09553503617662        0.28565139852757
C           52.82513154329641        5.73814955447305        0.02183413801166
C           50.97604626203974        2.75803544267058        0.44855223192259
C           49.69495260527631        3.41340547847384        0.49532044564973
C           48.75058627208855        2.45955743997147        0.30329486842526
C           49.44218483723525        1.21340529660172        0.12446021555118
N           50.78800882869280        1.42919960161405        0.20893108415251
H           47.74449649755507       -0.02014450525363       -0.09508223845827
H           47.70629780382261       -2.61927149378596       -0.46506470765242
H           49.59006639764523       -4.49387094494394       -0.81655868621503
H           53.34313837366067       -5.34835625670640        0.74520424335807
H           53.34563623219876       -7.78524079549953        0.27104375288028
H           51.18278695519177       -7.08340287153638       -3.36066996438145
H           51.18848015509235       -4.64518015841887       -2.89503775452173
H           54.91923988694508       -4.39946401089286       -1.16898061215463
H           56.79069721418558       -2.52491843113736       -0.78845725547929
H           56.76018941068973        2.56624040753278        0.68919788647140
H           54.86838521338458        4.42546582266835        1.04331304266364
H           51.12186926826516        4.62642148290912        2.73962622054130
H           51.09565048759653        7.06152707375662        3.22055132214235
H           53.27975573402274        7.80137095861079       -0.39083459020157
H           53.29891805020979        5.36744362312805       -0.87971537551922
H           49.54232687782304        4.47043155148503        0.64303592112138
H           47.67898035929647        2.57852360392470        0.27498834666778
Zn          85.04557790153433        0.07145815732543       -0.04119513425899
C           88.45732591546219        0.10768698349269       -0.10454632865838
C           87.83046844353942        1.31672183713947        0.17001650786002
C           88.50782731346550        2.55261543163037        0.44815588611852
C           87.55166427582731        3.48603037383743        0.67808551046220
C           86.27707984331802        2.83250823254507        0.53277328917447
N           86.48134186124844        1.51911574558658        0.23001064788150
C           85.02693373269494        3.43418590943319        0.72122208713211
C           85.01907150379009        4.87942015992035        1.05328128582886
C           84.50622881958118        5.32140389067105        2.27665983606350
C           84.50140157649275        6.66781430648743        2.59222981340987
C           85.00919288481711        7.58226716501654        1.67365648554049
N           85.00566176208804        8.99717057739710        1.99950489664779
O           85.46069771907979        9.75831180026611        1.18461264690937
O           84.54661226380863        9.32292357091867        3.06435212317679
C           85.52178079877029        7.16360276750282        0.44901675010872
C           85.52715970315727        5.81425199056224        0.14607047109660
C           83.78543845872993        2.79443878060662        0.62730305098870
C           82.51050225066056        3.43462629266735        0.79539540135030
C           81.56039395426239        2.48624064310549        0.59869068431788
N           83.58392287365314        1.47548544000401        0.32099543705831
C           82.23971825548395        1.26208360818300        0.29321956833523
C           81.60011003190424        0.03888372542347        0.00593004728913
C           82.25437573912268       -1.17447427418945       -0.28959573592816
C           81.59002578986426       -2.41487068589708       -0.56049829192663
C           82.55212435030582       -3.34774099357290       -0.77254765225206
C           83.81894727843810       -2.68118734145157       -0.65152011416096
N           83.60109407317499       -1.36282532129010       -0.35395750429676
C           85.06973292369294       -3.29652592753688       -0.78013128500168
C           85.08212702566080       -4.74680664012439       -1.08839977161743
C           85.64911967834308       -5.65226785245408       -0.18609759460940
C           85.66316021807808       -7.00695023611677       -0.46341497448274
C           85.11048096639215       -7.46094171777173       -1.65767317981738
N           85.12628813341634       -8.88169023353051       -1.95635043710916
O           85.62525226088083       -9.61697758041457       -1.14337154628496
O           84.63937595392467       -9.23778520899092       -2.99886874301736
C           84.54437952415144       -6.57619058482814       -2.57123947062490
C           84.53048541668160       -5.22404802627083       -2.28125381045838
C           86.31276871536585       -2.66619211954213       -0.64453299820101
C           87.59461544405539       -3.29340330770455       -0.83520200088363
C           88.53859823095641       -2.33791719191942       -0.64996930946655
C           87.84611890277975       -1.11498590618143       -0.35260797288519
N           86.50028035461045       -1.34644506857424       -0.35932891918070
H           89.54253343401605        0.11915670382048       -0.12556217700535
H           89.57908522384780        2.67593065565279        0.47064953288379
H           87.69207653667220        4.52356170185257        0.93555119559467
H           84.12525815741560        4.59827589633654        2.98838952809206
H           84.11257065138830        7.01895809577398        3.54049123689701
H           85.90699266162117        7.89580973355615       -0.25041477939488
H           85.91311499683142        5.47646829192010       -0.80869495594314
H           82.36072710326727        4.47726460649886        1.02450661000280
H           80.49107293123900        2.60225748004150        0.65693870309449
H           80.52181618183532       -2.55221083179766       -0.58302835333554
H           82.41553122761422       -4.39611498837197       -0.98290307426275
H           86.06597588746430       -5.28721523964803        0.74536348903958
H           86.09413662418231       -7.71635012885991        0.23280089718421
H           84.12525656560319       -6.95451089152592       -3.49584683615857
H           84.10426645572284       -4.52391817800688       -2.99029951882090
H           87.74738407668309       -4.32949506801694       -1.09141261920559
H           89.61056118669366       -2.43845766685367       -0.71390298026680
C           57.08933877114524        0.01904931182362       -0.04095242965690
C           58.30675721645856        0.01775200446598       -0.02939562651998
C           68.02244861160329        0.01111816601745       -0.02617041408942
C           69.24106280517358        0.00998830433640       -0.02367750627267
C           78.97085132098279        0.02130848879323        0.01509190981351
C           80.18888238897823        0.02878249158927        0.01396384824712
Zn          63.16230967972691        0.01512160508707       -0.02190518175098
C           59.71585787888245        0.01762759223348       -0.02250588054488
C           60.36261165575012       -1.22871542267685        0.09892685994106
C           59.69420652474044       -2.48119389170521        0.29069776040154
C           60.65070219940780       -3.44423481222203        0.31733590864966
C           61.91452492002599       -2.78708687469069        0.13539252642588
N           61.70525012826281       -1.43926801729833        0.02818656672510
C           63.15964334408356       -3.42476163387085        0.07771184206956
C           63.16018023319021       -4.90546479649368        0.12930247137776
C           63.83737137409955       -5.57532424191238        1.15347845674676
C           63.83500845745064       -6.95682536771816        1.21278986958287
C           63.15458743787365       -7.67712122534833        0.23509156717365
N           63.14906921019473       -9.12834980020070        0.29241244488477
O           62.54810238074202       -9.71762271459400       -0.56871055097014
O           63.74560586797626       -9.65228648878553        1.19784633566235
C           62.47850247504402       -7.03069161540772       -0.79579013721448
C           62.48192801948855       -5.64862009276800       -0.84215074682180
C           64.40416256224205       -2.79145054079163       -0.02269241630732
C           65.66463981189276       -3.46109582873831       -0.17774319859631
C           66.62265372931630       -2.50019397914812       -0.21560987528475
N           64.61776683370957       -1.43985272667654        0.00610531080303
C           65.96050740030239       -1.23685936207057       -0.08637387677292
C           66.61301877029463        0.01236462733291       -0.02636850808295
C           65.96271688246668        1.26269590014659        0.03453660375163
C           66.62723501998673        2.52511670730388        0.16050447893085
C           65.67064586841553        3.48751060151786        0.12554105824905
C           64.40857337040627        2.81970231244627       -0.02399179383248
N           64.61996999385461        1.46776154800283       -0.05336759162665
C           63.16469945856862        3.45501142024554       -0.11840206420805
C           63.16719524645469        4.93584363983090       -0.16872271047327
C           63.83717285104419        5.60536472971937       -1.19779328444915
C           63.83592259880769        6.98690540697291       -1.25637445199082
C           63.16429020313412        7.70744338074139       -0.27279796021431
N           63.16016936740175        9.15871122928994       -0.32920247606280
O           63.74834070257890        9.68239948797404       -1.24022876503294
O           62.56835347833518        9.74827299362963        0.53804714700913
C           62.49567114751577        7.06126888965748        0.76310013474235
C           62.49753133769747        5.67915153631015        0.80849739926296
C           61.91838376400071        2.81955464297515       -0.17236626451733
C           60.65523256144799        3.47936580341198       -0.34932941371041
C           59.69744103815971        2.51762609540354       -0.32536055120198
C           60.36425466574545        1.26342999752566       -0.13919092622896
N           61.70726189741153        1.47179309389245       -0.06870057533262
H           58.62958301398342       -2.60263413118167        0.40668310185503
H           60.51341638523467       -4.50324995910786        0.46467597976793
H           64.35252630084213       -5.00284448046358        1.91608566957457
H           64.35022479618826       -7.48379209773897        2.00687680774389
H           61.96091367159117       -7.61455787764230       -1.54740064269183
H           61.96952329631183       -5.13395742732671       -1.64664340912487
H           65.79832743405584       -4.52711311295101       -0.26607323848294
H           67.68490439339332       -2.63174198673792       -0.33674045655051
H           67.69008676052847        2.65518820154125        0.27741823621221
H           65.80628785520715        4.55342050932952        0.21218289513683
H           64.34564187163319        5.03261913628638       -1.96467618295999
H           64.34529618320562        7.51370327938202       -2.05433357833853
H           61.98488053761486        7.64534766531662        1.51918279951795
H           61.99057314298058        5.16457781810442        1.61648867330902
H           60.51931130345069        4.53923932431208       -0.49164704326476
H           58.63274160536459        2.64118467205819       -0.43822532808168
Zn          74.10643116340140        0.01437798333826       -0.00251462957818
C           70.65060463616548        0.01072187340512       -0.01942934293928
C           71.30225207404546       -1.23082375697950        0.13280744356445
C           70.63613086912339       -2.48417585461090        0.32527538487863
C           71.59531710110740       -3.44178714230253        0.39481355229450
C           72.86070568704960       -2.77977777670363        0.24659126371169
N           72.64759320954950       -1.43551173615807        0.10351568930327
C           74.10827629618946       -3.41249491161742        0.28256349090498
C           74.10376018807712       -4.89273663492482        0.37556524444879
C           74.66867661968567       -5.54162356350467        1.47738783713211
C           74.66812903850672       -6.92256080039526        1.55600886482162
C           74.10202945411199       -7.66166898309986        0.52126984218571
N           74.10496528557114       -9.11230100348858        0.59563512577384
O           73.58860558803454       -9.71740930839576       -0.30824693839195
O           74.62484960214127       -9.61975169993440        1.55601307390905
C           73.53319626408842       -7.03523851296728       -0.58394665748466
C           73.53381970148919       -5.65401809754655       -0.64973553838964
C           75.35661298291151       -2.78205580038196        0.23203038822481
C           76.62592335944412       -3.45277042657653        0.25360128347245
C           77.58309458714015       -2.49307359391541        0.18754916776478
N           75.56607655272198       -1.43296247871044        0.13473443394231
C           76.91198125956554       -1.23024609676452        0.10577497095864
C           77.56000903738902        0.01829194963923        0.01235885003071
C           76.90957526165992        1.26530727255375       -0.08610908793435
C           77.57849071281724        2.52953193098516       -0.16355772167982
C           76.61991379485849        3.48706611734996       -0.23878755730227
C           75.35204586898234        2.81350135899984       -0.22810209289196
N           75.56355499928438        1.46505374604677       -0.12673331843466
C           74.10310903030879        3.44129806723423       -0.29371744492514
C           74.09722159952065        4.92086877910427       -0.39535137789533
C           74.67575793544873        5.56298109856717       -1.49416243334786
C           74.67402584740023        6.94324424021000       -1.58275678819186
C           74.09342366755345        7.68874936060887       -0.56070595689195
N           74.09478577850936        9.13876994863244       -0.64566345073214
O           74.60767091558112        9.63952598155415       -1.61332631496393
O           73.58512077475193        9.75018383676852        0.25775600843513
C           73.51140055154059        7.06919754546307        0.54152311314208
C           73.51281024957011        5.68843082684753        0.61698508124532
C           72.85670060378310        2.80590858674964       -0.26900608388283
C           71.59147907766605        3.46435229650922       -0.43322949013614
C           70.63396544425953        2.50460511117120       -0.37089804954705
C           71.30097746564205        1.25350108548549       -0.16729533630559
N           72.64537512027971        1.46152122501630       -0.12420984403177
H           69.56985317382532       -2.61057999775630        0.41090773016772
H           71.45950954606198       -4.49973896651935        0.55094383646054
H           75.09569667488925       -4.95482041993083        2.28228416315454
H           75.09860925882963       -7.43466743925298        2.40814772582743
H           73.10158653045234       -7.63335388619553       -1.37748499131685
H           73.10439555692234       -5.15354227587385       -1.50987584843160
H           76.76797832268188       -4.52006643805949        0.30447864760791
H           78.65205066506245       -2.62594137904941        0.19313405889067
H           78.64701177590058        2.66501626109858       -0.16067765687407
H           76.76023910463353        4.55460558869396       -0.28897774442686
H           75.11441705910050        4.97111392239836       -2.28903049970298
H           75.11506101117180        7.44990331934585       -2.43274045370676
H           73.06853505840137        7.67224902855810        1.32505337714806
H           73.07273107427524        5.19348074227686        1.47492739383642
H           71.45475386703561        4.52140294244491       -0.59452971437739
H           69.56850975889631        2.62808024505880       -0.46948942909582
