292
 energy: -454.553681135032 gnorm: 0.000501808160 xtb: 6.5.1 (b24c23e)
C           38.03902708994999        0.09401202244496        0.01664875944625
C           38.65719843201995        1.28795572625279        0.36521331328699
C           38.01634861867135        2.49976615804935        0.74747693509243
C           38.98674250511488        3.43044204131888        0.99179103378270
C           40.25174232240078        2.81957270422906        0.75777274997700
N           40.00221050214135        1.52700100980200        0.39287525136208
C           41.51829697352006        3.40074697206741        0.88474820932482
C           42.72968961624586        2.73714413881978        0.68053313753829
C           44.02886386588492        3.38007499700010        0.76346041758010
C           44.94610592018366        2.42269706211163        0.51378074040669
N           42.87959753830421        1.42057538019058        0.36584073912263
C           44.20595661713289        1.19963056184982        0.27010564230208
C           44.83714124426188       -0.02984395686364       -0.00968626565086
C           44.19210309160497       -1.24763155458783       -0.29801551892311
C           44.82577209633554       -2.49119950238292       -0.55991653025585
C           43.85124528212743       -3.41546140101316       -0.81668288488344
C           42.59112296020323       -2.76149050129007       -0.72699722193946
C           41.32611946801588       -3.32892661961992       -0.91114584151402
C           41.28645514912132       -4.76001718849102       -1.30029641520838
C           40.66062026790362       -5.69587048110756       -0.47741998713035
C           40.62435415240804       -7.03901459411012       -0.83513003957097
C           39.93617716618321       -8.04381019217226        0.04887818672637
C           41.21523976492785       -7.44339458930106       -2.02880207846705
C           41.84297278830576       -6.52180387287186       -2.86125255970412
C           42.46031601298531       -6.96645579808067       -4.15969327880916
C           41.87677088189353       -5.18159277744106       -2.49108653451906
C           40.11325245748623       -2.64972320578549       -0.75543247992182
C           38.80697730365574       -3.24252701381361       -0.99715855096315
C           37.89682109151554       -2.28406801947126       -0.73079854555148
C           38.64602275608483       -1.10316136920269       -0.33963522875589
N           39.97720863702075       -1.35726432254684       -0.37509155396643
N           42.84924673914915       -1.45579868547334       -0.40115147114422
C           41.55468142967164        4.83466216927210        1.26722227089357
C           42.15634688353749        5.22879588123477        2.46069924004924
C           42.18131169228876        6.57000731442262        2.83054589067207
C           42.84126327098142        6.98379065717370        4.11810572433372
C           41.60510358568406        7.51897208659318        1.99263022955460
C           41.00240094865526        7.14132674021550        0.79571791590235
C           40.40139030567174        8.18003403501788       -0.11236428562514
C           40.97810756500153        5.79773194751413        0.43942595542833
H           36.95376369118023        0.10842551627697        0.02325905310885
H           36.94854629802898        2.62796979979978        0.82682410168363
H           38.84558543410097        4.44957569261456        1.31345658313375
H           40.72069251448112        0.84414791865082        0.17692871871542
H           44.19340556226346        4.42484499959025        0.97196456988418
H           46.02036035258089        2.51106463907116        0.48375024096375
H           45.89211589751445       -2.64947640804727       -0.54652561466973
H           43.98882458756802       -4.46099908054604       -1.03937987574751
H           40.21787969568824       -5.37117683287394        0.45781012106776
H           38.91059501298706       -8.19832101351968       -0.29420697675800
H           40.45122377800399       -9.00435315233624        0.01781520600139
H           39.90065570774180       -7.69488171663864        1.08094601542049
H           41.18894228054189       -8.49068820107029       -2.31185386462478
H           43.27819423810121       -6.30573702927285       -4.44773898976420
H           42.84009513289377       -7.98530634057160       -4.07998443334592
H           41.71019472739411       -6.94508680630489       -4.95359964825072
H           42.35089612032106       -4.45229792883842       -3.13894412943198
H           38.63529641134984       -4.25156731908407       -1.33597599430366
H           36.82109400954310       -2.33771387636882       -0.79293400134262
H           42.13407128201085       -0.75114938265556       -0.25439643523201
H           42.58988798457936        4.47850481859177        3.11276967729931
H           42.63075715567832        6.26265530327741        4.90858949871668
H           42.49479249857040        7.96713402525299        4.43596481904900
H           43.92416305014699        7.02949487608417        3.98264897251097
H           41.62191960005617        8.56635119611788        2.27605858379559
H           39.97628554663960        9.00101150435407        0.46562791815244
H           41.17280055005246        8.59090747817864       -0.76769265011473
H           39.62055012518104        7.74605838318911       -0.73712700404309
H           40.52191112755244        5.49277343296459       -0.49612935602896
C           92.88788853819715       -0.10470956660164       -0.02960753233273
C           92.26414039235297       -1.31096482186382       -0.32111759447342
C           92.89919974996779       -2.55436022178289       -0.59685194113887
C           91.92420786377376       -3.47967266407961       -0.84329965572671
C           90.66207640786311       -2.82921094519622       -0.73390146455327
N           90.91790186724019       -1.52723200200349       -0.40908398475156
C           89.39254964319640       -3.39342810105731       -0.90037800443336
C           88.18438411121554       -2.71276627876470       -0.73804082652682
C           86.88144253515212       -3.31127780431944       -0.96628347469263
C           85.96914911706689       -2.35145512826483       -0.70840866481820
N           88.04134474496007       -1.40972167159436       -0.36829737391866
C           86.71602642957541       -1.16602391520489       -0.33406100724119
C           86.09067742801986        0.05075736949245        0.00805713707754
C           86.74077308631001        1.25556655170311        0.33637707229944
C           86.11235849053968        2.47449260326960        0.70501112210775
C           87.09145097312428        3.39980885512235        0.93982869492429
C           88.34938394428985        2.77540442871992        0.71315650666183
C           89.61793181922042        3.34901687485684        0.84658639305980
C           89.66792079208156        4.78410460310031        1.21975830522223
C           90.28633828070588        5.17960386853349        2.40552527098835
C           90.33588537140656        6.52227761595312        2.76312225074173
C           91.01732868056504        6.94667566501856        4.03598654910610
C           89.76520013802929        7.47359489266142        1.92233586697985
C           89.14457714537525        7.09523445281415        0.73575733420695
C           88.54969854592981        8.13432149318596       -0.17595974603759
C           89.09772493137717        5.74879219823814        0.39017766602499
C           90.82734452722966        2.67208699583942        0.65695230264210
C           92.13734245693495        3.29791063670847        0.74967465490379
C           93.04249152320247        2.32814376100716        0.50856351642458
C           92.28672813669428        1.11392944668370        0.25693848347503
N           90.95660099743655        1.36042871356802        0.34633701771640
N           88.08506717380159        1.47851842790118        0.35814231543771
C           89.34826196260495       -4.82735406245730       -1.28238201851267
C           88.75527798276330       -5.76334235829172       -0.43742328343242
C           88.71897130059352       -7.10932989791963       -0.78845657554323
C           88.06672075855253       -8.10939521245125        0.12751814289412
C           89.27519301780649       -7.51377490773912       -1.99751891672822
C           89.86987735628691       -6.59043108440173       -2.85316603648908
C           90.44842663873331       -7.03717671305598       -4.16861637602850
C           89.90582063917297       -5.24915568528381       -2.48913050276747
H           93.97307098296672       -0.12537971729334       -0.03154458227445
H           93.96650645012302       -2.70863370185879       -0.59804860943094
H           92.06019113406401       -4.52403161511619       -1.07323477768329
H           90.20270487668627       -0.82493111128005       -0.25274779028795
H           86.71092280914309       -4.32468095552313       -1.29178709907668
H           84.89417331504828       -2.41149013287135       -0.76762590868940
H           85.04617722424346        2.61381233504622        0.78369622741710
H           86.95816486579271        4.42265745956548        1.25239213459594
H           90.71342917369303        4.42759370583213        3.05990103960179
H           92.04510584798548        7.24944091188201        3.82290745418249
H           90.50194481289233        7.79502807317913        4.48719147868377
H           91.04594380224424        6.12749744425331        4.75450618547603
H           89.80214310904009        8.52273600743051        2.19726299352819
H           87.73656437287958        7.71315647698415       -0.76743717680940
H           88.16911160540549        8.98055842757320        0.39650112430233
H           89.31335091561404        8.50568420708192       -0.86323763172290
H           88.62975323806990        5.44396024856691       -0.53958623762732
H           92.31478444659091        4.34068112247347        0.95839066790571
H           94.11882155962559        2.39864278465779        0.48689735122204
H           88.79733064715549        0.78586865770009        0.15196781372083
H           88.33681365710963       -5.43831632565856        0.50880166116966
H           88.28093712891462       -7.87465728611778        1.17065894590874
H           88.41557232466361       -9.11975292087777       -0.08592789021447
H           86.98312040515003       -8.08567170849339       -0.00820946597912
H           89.24859103355332       -8.56210963937403       -2.27664000170686
H           90.86907567826729       -8.03973970922512       -4.08677883386487
H           89.66508706261379       -7.05951841594153       -4.92970717558511
H           91.22810750857654       -6.35283399817974       -4.50349638506377
H           90.35567155906597       -4.51873426751741       -3.15283295843434
C           50.03954959880989       -0.10991861565125        0.00066088676585
C           48.81104646991670       -0.09663280283447        0.00056733838996
C           47.46671014252872       -0.07816645774632       -0.00243567083499
C           46.24277539665435       -0.05603018103951       -0.00608063791294
C           51.38383830336426       -0.11916607588729       -0.00078936668941
C           52.60818267572777       -0.12005005445144       -0.00672877890255
C           66.07843663495429        0.01662238509629        0.03376024630329
C           64.84937572811405       -0.00007945519577        0.03674392902625
C           63.50609153705885       -0.01832517367519        0.03576728471920
C           62.28164574982603       -0.04007824111718        0.02819068498294
C           67.42176661205178        0.02892283776661        0.02692252695075
C           68.64633431297386        0.04381178248064        0.01340971438373
C           82.11675801660506        0.09441994530279        0.04415803460824
C           80.88812501959084        0.09175786205317        0.04673496448585
C           79.54388056288448        0.08538757952252        0.04169976710418
C           78.31964504868338        0.07194981237547        0.03282249844239
C           83.46114310003176        0.08852028585287        0.03690109292903
C           84.68512025650048        0.07548081334845        0.02362247740273
C           54.01311850174807       -0.11588031866156       -0.01296883887865
C           54.64715111135191       -1.28960895212871        0.43855016302471
C           54.00618325672706       -2.46094557739310        0.91816607064724
C           54.97710930858364       -3.36885985947620        1.24281258037449
C           56.23990388671623       -2.77945235052291        0.96323179053764
N           55.98950779659015       -1.52001326090922        0.48711031863101
C           57.50258821454750       -3.35426897509490        1.15182508219507
C           58.72451144211106       -2.72459636341635        0.91226306413793
C           60.01346594305571       -3.37359111679229        1.07235578535216
C           60.94763224351347       -2.45170298435214        0.75959950407221
N           58.89720363600691       -1.44104062543268        0.49001767325898
C           60.22785656474280       -1.24633844031660        0.39907493660114
C           60.87788790514137       -0.05548920857210        0.01488367225411
C           60.24273280912395        1.13344793336922       -0.39477792841955
C           60.88297399770801        2.34284728205875       -0.76936151994019
C           59.91238225330284        3.24221998209021       -1.11771975027367
C           58.65066840324747        2.60414519747636       -0.97228238058731
C           57.38880996191021        3.15869006867130       -1.21726157057380
C           57.36909332025018        4.54808632689888       -1.74087865701470
C           56.76504697539912        5.56802019184114       -1.00627387023235
C           56.73915613768180        6.86954226000245       -1.49419132464141
C           56.10372313684920        7.97214921033346       -0.69111042269464
C           57.32221056122004        7.14761858180502       -2.72752363752747
C           57.92737283355664        6.14099936442929       -3.47291627724855
C           58.56738671626216        6.45251706811930       -4.79884806769441
C           57.95125461600576        4.84300474857274       -2.97252767707495
C           56.16691932240596        2.51663817935569       -1.01106395235448
C           54.87894436808504        3.11056736456055       -1.32185000315174
C           53.94467977383641        2.19993334174251       -0.97826675718099
C           54.66345734840819        1.04794849679817       -0.47102504529627
N           55.99413660820332        1.26178026517127       -0.51082133074473
N           58.90126808362813        1.33444078644687       -0.52386405391239
C           57.52324810609434       -4.75234151420656        1.65233784590538
C           56.96341320800515       -5.77975292296624        0.89505360009183
C           56.98808287706444       -7.09213910178600        1.35675083859854
C           56.37340558306156       -8.19317814528221        0.53533534208228
C           57.57037184219039       -7.37030449288059        2.58902840954260
C           58.13089415553804       -6.35448113018936        3.35856569759309
C           58.74024481977717       -6.66588440727822        4.69877111132200
C           58.10560250448229       -5.04776808200737        2.88452655169841
H           52.93857383871974       -2.58280645946586        1.00528697143396
H           54.83381507075641       -4.35690658507745        1.64879655448909
H           56.70615398210376       -0.85427412388849        0.21794489165544
H           60.16106314934905       -4.39878165063761        1.37096259092550
H           62.02102810882617       -2.55439029406999        0.75652494043428
H           61.94981202006755        2.49784262376079       -0.76550426556603
H           60.05510179085270        4.26113452585247       -1.43867034453413
H           56.32440319755143        5.34057794398331       -0.04183922643607
H           56.86920965413321        8.50934858648618       -0.12654331250091
H           55.60251245701172        8.68670681325862       -1.34473653908451
H           55.37778126177420        7.57049914159743        0.01582730025103
H           57.30028311114555        8.16160495629970       -3.11350739156011
H           58.47715265875380        5.60700172395428       -5.48121843377539
H           59.63022600652601        6.66192041615200       -4.65757659448143
H           58.10662302373525        7.32757452189235       -5.25738493181444
H           58.40593009422113        4.04713205513804       -3.55240377201241
H           54.73184219911644        4.08649048456095       -1.75524985329361
H           52.87191773021133        2.27219885948335       -1.05949085049527
H           58.18498140416234        0.64730839519563       -0.31403581279360
H           56.52560096444025       -5.55360758801147       -0.07116222406550
H           56.80021194720220       -9.16083570559703        0.79921317620693
H           56.53079627834459       -8.01596912857436       -0.52896768126814
H           55.29678332234607       -8.23431091452066        0.71576753465024
H           57.59199398984203       -8.39213614433284        2.95374008976903
H           59.49092856932976       -5.92244782838771        4.96708030345048
H           59.20532380172723       -7.65202310804399        4.69317257122629
H           57.96543837426310       -6.66106207334043        5.46887037398478
H           58.52960714343022       -4.24602502876561        3.47906687187671
C           70.05016009216071        0.04373623230146        0.00232932867708
C           70.67940881428127       -1.12852534554977        0.46570824838205
C           70.03345647817281       -2.29046094304812        0.96118015572667
C           70.99963427431636       -3.20625913959009        1.27756596914899
C           72.26426220242337       -2.63112343651165        0.97726386849355
N           72.01984944486985       -1.37081016622554        0.49993580664409
C           73.52311471662418       -3.22043402029313        1.14448103159231
C           74.74811955617015       -2.60167391758783        0.89087972057574
C           76.03278771668707       -3.26434043559744        1.02777945510322
C           76.97186113944906       -2.34635522184189        0.71819597205563
N           74.92743687068983       -1.31517118047768        0.48184893373467
C           76.25923181032518       -1.12994866525108        0.38150584541606
C           76.91492391160001        0.06342823389277        0.01696430074442
C           76.28562213951624        1.26064003325588       -0.37626894440038
C           76.93105612761920        2.47129089924172       -0.73764592623938
C           75.96501261940818        3.37409951055899       -1.08997469539135
C           74.70104820453044        2.73735131540660       -0.95922321861042
C           73.44255218936196        3.29380150111137       -1.21850634082924
C           73.43199984570563        4.68064086622923       -1.74907240139478
C           72.82325596269871        5.70645169155007       -1.02650924392689
C           72.80788547560138        7.00552123121989       -1.52115208007903
C           72.16897401727699        8.11484890472951       -0.73018272915832
C           73.40531351439842        7.27524628801424       -2.74960563428653
C           74.01472002452601        6.26275367714126       -3.48316540178202
C           74.66972922017982        6.56287052372358       -4.80442301607204
C           74.02875568852657        4.96725396598727       -2.97558535963301
C           72.21759884493368        2.65570955310244       -1.02030961131077
C           70.93328339917818        3.25020552408029       -1.34476011461504
C           69.99415332864825        2.34624371502890       -0.99636485182433
C           70.70661437520162        1.19750859372737       -0.47324878950922
N           72.03777258239293        1.40578326447912       -0.50936656115401
N           74.94532351832378        1.46564086892533       -0.51370302571029
C           73.53518021293625       -4.62151932198073        1.63590480064244
C           72.94301453856134       -5.63534153406014        0.88457938295343
C           72.95746629374604       -6.95089653341114        1.33707993890964
C           72.30669924176426       -8.03739267863638        0.52417974366957
C           73.56279784651078       -7.24627853504291        2.55428549685720
C           74.15594189887842       -6.24441810783586        3.31757613327191
C           74.79025699251706       -6.57488365643204        4.64153093612546
C           74.14008169331991       -4.93418143278368        2.85286737492859
H           68.96600738446402       -2.40159781735163        1.06301421256077
H           70.85200899045270       -4.19055905711951        1.69099656842658
H           72.73931277741853       -0.71368325833825        0.21752762738576
H           76.17432569729030       -4.29490118502205        1.31037104144676
H           78.04419239883639       -2.45838991866187        0.70255118428787
H           77.99812286312209        2.62423231912967       -0.72421606944559
H           76.11219739034792        4.39438601850417       -1.40455969301211
H           72.37112860588590        5.48552739482608       -0.06588505662406
H           72.93093657389993        8.65091056025180       -0.15977913346313
H           71.67841400896253        8.82883801751880       -1.39244650919963
H           71.43348013936996        7.71998234625451       -0.02932987871738
H           73.39144886677029        8.28744358805876       -3.14062940372712
H           74.53629025704609        5.73354473933198       -5.49964589243918
H           75.74199234119422        6.71488631130522       -4.66124706184447
H           74.25387244958581        7.46699741700525       -5.24911830056275
H           74.48761530718465        4.16704572564277       -3.54613945627073
H           70.79185818734133        4.22203351137713       -1.78916967488682
H           68.92196689464964        2.42070997548116       -1.08378080065263
H           74.22629020797675        0.77826678828654       -0.31437328140769
H           72.48762260652911       -5.39583517577562       -0.07022574558313
H           72.75337670616095       -9.00748556801961        0.74248619503492
H           72.40490642813964       -7.83497392512613       -0.54264260288214
H           71.24182729129235       -8.09133718628811        0.76203081959285
H           73.57665164710150       -8.27078816203922        2.91180204356849
H           75.54650259339604       -5.83580055526635        4.90611736805684
H           75.25439203186080       -7.56109897020125        4.61294139096908
H           74.03016582275384       -6.58098361900916        5.42612830044247
H           74.58879784204541       -4.14300013222920        3.44339305784691
