177
 energy: -317.181478418054 gnorm: 0.000761266916 xtb: 6.5.1 (b24c23e)
Fe          36.38017073673541        0.03432342322105        0.05130852972894
C           32.99569227919435        0.01843102914607        0.14580102176947
C           33.63764734668042        1.23960989628130        0.18506786703059
C           32.95779734771529        2.49914795893124        0.22546238004280
C           33.90987477388131        3.44929860961883        0.38147291997521
C           35.16931458120993        2.76593665181227        0.45399636991190
N           34.99259421498127        1.42046527530725        0.28008459761130
C           36.38060850637508        3.38475280231756        0.74812555926266
C           36.38372491226700        4.83431445368524        1.04847572040963
C           35.64929529476823        5.33769885804399        2.12481005675584
C           35.65458973335536        6.69138125655652        2.40914088787323
C           36.39305146449401        7.57195704178577        1.61300133013008
C           36.39699544471492        8.96630831208991        1.90034467410024
N           36.40031960154180       10.09323980674279        2.13306966467721
C           37.12769120265884        7.07338480831592        0.53306442327899
C           37.12405813815867        5.71756383163810        0.25904990293675
C           37.58674259158770        2.69764850200720        0.78329004836730
C           38.83566711419239        3.28359810703859        1.16968259812383
C           39.78723036129241        2.33933854880958        0.97134372878485
N           37.77311605152055        1.39093010328672        0.40186131537497
C           39.11885403921638        1.18175573821740        0.46575683646118
C           39.78803661763907        0.03826316912073        0.00960479970397
C           39.11160609212502       -1.10165900537982       -0.44526741856260
C           39.77031608766030       -2.24797663436408       -0.98774686531957
C           38.81380415256120       -3.18478235808769       -1.19717983430096
C           37.57266539251035       -2.60848822062241       -0.77275051825495
N           37.76699723974600       -1.31055142410375       -0.36467593849735
C           36.37070762822225       -3.30080061318176       -0.71522238142634
C           36.36647605393525       -4.74194163954221       -1.05434936095342
C           35.59547724934888       -5.21731469452816       -2.11768366415189
C           35.59531444323061       -6.56227075094468       -2.44096475199284
C           36.36400966897566       -7.46221646774604       -1.69671378453123
C           36.36186130015545       -8.84752424550551       -2.02497083141529
N           36.35725625513646       -9.96593019546394       -2.29565271401420
C           37.13330525140206       -6.99200653972178       -0.62830463392456
C           37.13516024960082       -5.64456475151817       -0.31563907587792
C           35.17060828430637       -2.69858073229853       -0.34895257655440
C           33.92378943004733       -3.39622387858082       -0.21879767607304
C           32.97590621825613       -2.46083840885293        0.02655349469429
C           33.64569380014080       -1.19546803688582        0.05451158250001
N           34.99349171725370       -1.35993963821176       -0.13155146845760
H           31.91215144290936        0.01307313942365        0.18113022659202
H           31.88949544267073        2.62078888011256        0.14314676060245
H           33.78323939762160        4.51802245235316        0.44210015209762
H           35.08556645400978        4.65628248834219        2.75185420968119
H           35.08787930727778        7.07392853302757        3.24990208150249
H           37.69859155332986        7.75359813658070       -0.08805511808621
H           37.68607193903826        5.33540531475484       -0.58562730624278
H           38.95790466261436        4.28421148019720        1.55110034272984
H           40.84770199919995        2.40756516902777        1.15053322890246
H           40.82769819342226       -2.31327151367636       -1.18536620365755
H           38.92826613387738       -4.17514368620301       -1.60669105340899
H           35.00707336971880       -4.52060076698307       -2.70392165154512
H           35.00094777894392       -6.92311028612687       -3.27218312504335
H           37.72686590982919       -7.68742117655918       -0.04651699605326
H           37.72409656729904       -5.28453936495662        0.52037463649051
H           33.80288345893850       -4.46406992490471       -0.30269186021667
H           31.91615948722908       -2.59562087334435        0.17360858373574
Fe          58.07458636511651       -0.01267946107456        0.10836351826090
C           61.45893488388970        0.01131652950662        0.31152658887013
C           60.80687303366938       -1.17680703977766        0.56825204070403
C           61.48502615641377       -2.39319382842358        0.90141561109710
C           60.53676265422593       -3.35532567815153        0.98385481236520
C           59.27794523567601       -2.72104007036275        0.71611150167789
N           59.45622405998105       -1.38663940766846        0.47152684805719
C           58.06578501393238       -3.39958928792262        0.65123097804635
C           58.06191137409294       -4.86275839931823        0.89174396645576
C           58.40208548283103       -5.37007164509282        2.14746405019264
C           58.39484553434352       -6.73356826705514        2.38084013992512
C           58.05103756673577       -7.61800815258545        1.35422833703058
C           58.04584376560770       -9.02196428742557        1.59070643679553
N           58.03826899465354      -10.15637435149577        1.78392007060111
C           57.71265760406730       -7.11428352553874        0.09487945912301
C           57.71580704800703       -5.74901965593432       -0.12987461857706
C           56.85721915311181       -2.76850561888817        0.39462133240150
C           55.59333463423659       -3.44387793323907        0.38144798948421
C           54.64366537562633       -2.49176891147598        0.22131962091677
N           56.67705900418144       -1.41619872425157        0.22597385086411
C           55.32824056463727       -1.23946062163317        0.13595214382765
C           54.66532481952330       -0.01033725068647        0.04513647132282
C           55.33484834963343        1.21410767941243       -0.06043020125768
C           54.65584932612352        2.46128799194288       -0.22819701827212
C           55.61057433404680        3.39831878429401       -0.43918711490499
C           56.87277294506390        2.72267157950632       -0.37973514846913
N           56.68565065428437        1.38273744489062       -0.13727791027057
C           58.09385971647962        3.34272276589187       -0.60182597885347
C           58.10753710922469        4.78780834982442       -0.93392692689350
C           58.54488088090269        5.21536289341713       -2.18914361024682
C           58.55873274415502        6.56141393756329       -2.50811770627692
C           58.13991674497449        7.50824774232645       -1.56866216454141
C           58.15686901797864        8.89438990814257       -1.89322749416432
N           58.17294156201272       10.01414759839096       -2.15765412910815
C           57.70576416509147        7.08452465613320       -0.30926341652409
C           57.68830642344444        5.73624212173021        0.00084675327846
C           59.31105732564600        2.67704288752347       -0.50808259818771
C           60.58498168584992        3.32175146832257       -0.65073648207541
C           61.52743349635594        2.39234021689958       -0.36849100219944
C           60.82902844528208        1.18095723382126       -0.05992358948196
N           59.47501458915537        1.36335639243740       -0.16191395602006
H           62.54033826155185        0.02149512979208        0.38837853949466
H           62.55129677678026       -2.48185361417311        1.03574376829273
H           60.66665186419562       -4.40437680510784        1.19448406335183
H           58.65874317308432       -4.68575006055016        2.94815175451208
H           58.65421862142497       -7.12060423970067        3.35926814624662
H           57.44886174122917       -7.79761803886639       -0.70377666967551
H           57.46200855768787       -5.36155695950537       -1.11003302535658
H           55.45895669593803       -4.50665281808529        0.49965396247547
H           53.57333056176191       -2.61153665084484        0.17551184837107
H           53.58535338226280        2.58630094590780       -0.20702057712874
H           55.48047280546071        4.45113848709471       -0.62917955707413
H           58.86243778837015        4.48231899703085       -2.92200344643491
H           58.89352569171793        6.88665823143588       -3.48613485993858
H           57.38453761247474        7.81632498874237        0.42262647104340
H           57.36191075556663        5.41125236789229        0.98221865237200
H           60.72546648788010        4.35749469844937       -0.91403804545153
H           62.60049352267434        2.49873120757390       -0.36048761460101
C           41.19092971452380        0.03808155908134       -0.00056210274457
C           42.41031697520428        0.03950206628402       -0.01343301106681
C           52.04233745348389        0.00346181027866        0.02071681535696
C           53.26067749404006       -0.00589510658226        0.03462659185456
Fe          47.22686035870748        0.03143502259318       -0.02790057530728
C           43.81251857390101        0.03942082149135       -0.02525091156831
C           44.48580287266305       -1.18083070717971       -0.17633006863237
C           43.82325426656778       -2.44266006162872       -0.27246028603087
C           44.77505537779869       -3.36028277235650       -0.57298267696509
C           46.01611027373200       -2.65168355638266       -0.65852587364468
N           45.82880300210076       -1.32449355514638       -0.36167819510863
C           47.21707664406042       -3.22603606402296       -1.05939839066184
C           47.20398209772892       -4.63129053762778       -1.52383084078739
C           46.42995485221230       -4.99884375291919       -2.62726049232214
C           46.42027704703761       -6.30700337266051       -3.07621969584785
C           47.18207718645544       -7.27846214908195       -2.42011384101544
C           47.17491976917142       -8.62573553208300       -2.88045433929050
N           47.17017066894952       -9.71350186937039       -3.25578511234018
C           47.95168959463560       -6.91722028303802       -1.31034987922417
C           47.96337390103545       -5.60538792492429       -0.87155922664206
C           48.42701149526916       -2.54210522002963       -1.04120628796366
C           49.67395877909522       -3.09793050857808       -1.47371172450716
C           50.63375295466943       -2.19496662841325       -1.15536281989372
N           48.61947546388086       -1.28496774609169       -0.52323593818875
C           49.96781383233807       -1.08712110437595       -0.54659208853379
C           50.63896252711353        0.01398069861405        0.00008526446212
C           49.96832427433002        1.12916715487973        0.51760959514667
C           50.63371274111575        2.23992405556303        1.12175572743905
C           49.67986838153691        3.16566506352652        1.38855510119469
C           48.43665480759112        2.61718957690587        0.93665462253179
N           48.62459043014617        1.34815199266788        0.44797254419334
C           47.23278529130490        3.31234967064071        0.92669817125801
C           47.23092225830138        4.72734707684543        1.36147393600021
C           46.46359801388607        5.12573333799361        2.45874822530188
C           46.46570783336963        6.44383533847100        2.87788747239498
C           47.23276989346554        7.39413475488635        2.19743059123492
C           47.23492444959329        8.75208927279701        2.62529761841518
N           47.23838731261321        9.84875836594170        2.97338203749859
C           47.99752246833284        7.00138637904479        1.09500246163327
C           47.99784552736048        5.67976940547566        0.68645674632555
C           46.02838487925148        2.73705084188655        0.53891970005017
C           44.78743357932763        3.44655593780006        0.45764640863445
C           43.82925347654373        2.52472555356345        0.19250579410403
C           44.48862864757088        1.26046048515278        0.10728228721192
N           45.83466908805060        1.40529588320042        0.26564197228572
H           42.76680908307060       -2.59536470771758       -0.12469538636611
H           44.65739540527255       -4.42210005035264       -0.71530502734050
H           45.84743909872679       -4.24519146375469       -3.14495961404761
H           45.82414748227584       -6.58310828440891       -3.93803659772083
H           48.53859020134826       -7.66907914279815       -0.79597072074057
H           48.55209803131154       -5.33119724455098       -0.00352557717567
H           49.79177990064714       -4.05288427534021       -1.95912205164288
H           51.69728876270965       -2.25899743751262       -1.31893564782402
H           51.69300229518345        2.29146209180369        1.31471631279451
H           49.79848032597265        4.13051821365565        1.85382044442229
H           45.87709411496923        4.38871349186599        2.99553423267600
H           45.87467819828989        6.74416138839053        3.73511018089457
H           48.58952864002907        7.73649862130824        0.56259098700384
H           48.58370120674430        5.38038540289795       -0.17516940406477
H           44.67336156163422        4.51097558001290        0.58231372678062
H           42.77066005562746        2.67652326171731        0.05983124874264
