136
 energy: -226.427124132682 gnorm: 0.000213292368 xtb: 6.5.1 (b24c23e)
Cu          17.59241305115272        0.03042720758175        0.00813680870395
C           14.18920651935965        0.09419513804749       -0.05301108057036
C           14.81532014505539        1.02048063427298        0.76815927975714
C           14.13193178597362        1.94436344459408        1.62665719193687
C           15.08478328668223        2.67035419854847        2.26361031058566
C           16.35933485178818        2.20697510227766        1.78738898470716
N           16.16435551339305        1.19977387911993        0.88666697052677
C           17.60034828145239        2.70470840495241        2.19656930227485
C           17.60942476551812        3.84499908295611        3.14275726082056
C           17.00070197079095        5.05852877227505        2.81074832318008
C           17.02137238925347        6.12404374831620        3.69088193584770
C           17.64341119510259        6.00399987846185        4.93967792572924
N           17.68443245323595        7.11697701576589        5.76698174463724
C           17.87948767791048        6.94303600842804        7.20002766820079
C           18.25600499194272        4.79348839210179        5.27604956913559
C           18.23657026471977        3.73390596524161        4.38524273183327
C           18.83661364767967        2.20496525426688        1.77885289123592
C           20.10971497852988        2.77056837405954        2.12487091648263
C           21.06089850894557        2.00915964261832        1.52616676003051
N           19.03267288044339        1.11993926200318        0.96573993853679
C           20.37656147854261        0.97965575996002        0.80439926998476
C           21.01846468550722       -0.02344367107184        0.05686917860874
C           20.36658162497094       -1.01100254243860       -0.70287223104920
C           21.03831855313544       -2.06668611055855       -1.39806918341155
C           20.08091959320128       -2.80261895904387       -2.01835904106815
C           18.81720665988734       -2.19345061166969       -1.71447865588141
N           19.02416807713400       -1.11024677482823       -0.90161680495343
C           17.57853038031385       -2.65181464992744       -2.17079625076283
C           17.57890243347699       -3.79842263026978       -3.10923246456089
C           18.25508602562515       -3.72098019464070       -4.32839646340140
C           18.26974044663589       -4.78874826433450       -5.20942104406735
C           17.60238865142452       -5.97377496616486       -4.88661176393710
N           17.63604152475897       -7.09547259383735       -5.70222409195784
C           17.88789833086709       -6.94252327460622       -7.12877282702553
C           16.92930895798789       -6.05968980096231       -3.66170377787184
C           16.91412453587290       -4.98605003988915       -2.79137478477608
C           16.34330019400305       -2.10608999492978       -1.80784804674512
C           15.07026966579001       -2.52284012332752       -2.32898757563317
C           14.12326078378214       -1.75759247183123       -1.73040217447060
C           14.80954021662672       -0.85692190667993       -0.84983893690616
N           16.15420581146506       -1.08796561666382       -0.91817325670028
H           13.10424586737884        0.11493640916193       -0.07327154922757
H           13.06009422703250        2.00934935213921        1.73067956097559
H           14.94307328165984        3.44280614349787        3.00244873417474
H           16.52652026796346        5.17129453000804        1.84183705366878
H           16.55614030769429        7.06467595069854        3.41521193221961
H           16.95644351820149        7.78873809713477        5.55550104181272
H           18.89401084650344        6.59545995962861        7.39944854001032
H           17.16387713048344        6.22743962597470        7.62099048398065
H           17.74310837403418        7.91282066390553        7.67863262597878
H           18.75124571116396        4.67173957857362        6.23156548908741
H           18.70075129368962        2.79431503697543        4.66504514360468
H           20.25434488039556        3.65010740632640        2.73111434591362
H           22.13178381755676        2.13201529841616        1.55739939481846
H           22.10511917456830       -2.22413099976966       -1.39683519810401
H           20.21497638851059       -3.69141038751723       -2.61340801954505
H           18.76275532562249       -2.80112591212524       -4.59805200417028
H           18.80449891214114       -4.69367850568512       -6.14649335771572
H           16.87980723538149       -7.74156590187652       -5.51095191609883
H           17.21194583288463       -6.20802749837119       -7.58152189653295
H           17.73647549915404       -7.91207787351011       -7.60330290604491
H           18.91987840003330       -6.63054711285904       -7.29469600185114
H           16.42024280833025       -6.98040712928248       -3.39647062579585
H           16.40002380540679       -5.07278809364768       -1.84030532781613
H           14.92635275824077       -3.29287563519349       -3.06992371514869
H           13.05426399727467       -1.78184108800872       -1.87370602849208
Cu          31.04923756723676       -0.01392489280182       -0.02803434289716
C           34.45238864070449        0.03312370500461       -0.10508535300288
C           33.82622434813760       -0.97067451650522       -0.82942474038425
C           34.50965132006744       -2.01030367190361       -1.54334072044739
C           33.55681999393475       -2.79087324875069       -2.11213554935657
C           32.28223795346653       -2.22516045657395       -1.76373396470450
N           32.47716755304815       -1.12589352147195       -0.97798363682626
C           31.04127958635963       -2.73362457904580       -2.15969820897716
C           31.03235592888012       -3.90603667254261       -3.06575521693063
C           31.64089213478969       -3.84700647447184       -4.32258856122318
C           31.62037850594060       -4.93865636471789       -5.17008746899065
C           30.99877275237675       -6.13125340401240       -4.78000686451291
N           30.95795424152592       -7.18174028822395       -5.68530635762022
C           30.76312168451839       -8.54221401532896       -5.20254836838375
C           30.38638944858132       -6.19521434195166       -3.52514514771566
C           30.40557074979498       -5.09440942971449       -2.68581409314963
C           29.80495722953496       -2.21717277946538       -1.76301646805124
C           28.53187060719486       -2.67832416687575       -2.23946704623193
C           27.58067941234141       -1.92775294016484       -1.62723632236676
N           29.60887519015987       -1.18689958598766       -0.88157011425163
C           28.26501082123372       -0.99876674036710       -0.77998342371934
C           27.62315233989299       -0.05008442165891        0.03553757595634
C           28.27509304684238        0.90708853612960        0.83318821187103
C           27.60333253612193        1.81606883383147        1.71153296951370
C           28.56072689607814        2.58202323059729        2.29434424657106
C           29.82445011164979        2.15250787375279        1.76622168999854
N           29.61749681039367        1.12282223387995        0.88653065813828
C           31.06311312464326        2.69776465976093        2.11416889771014
C           31.06268294487517        3.86347017785457        3.02875110488185
C           30.38625870095549        5.03640240776374        2.68778718843949
C           30.37136205988509        6.12870591449144        3.53820215465517
C           31.03876346668701        6.07172890276167        4.76505357956802
N           31.00483292870893        7.11192745964019        5.68236653207244
C           30.75316833932496        8.47096677716892        5.22239574350627
C           31.71217726707115        4.89507420273622        5.11549257727830
C           31.72756132095937        3.81191621804130        4.25704861172821
C           32.29839213131793        2.22465298693896        1.66072036121964
C           33.57134550134730        2.82453701533816        1.95333756527306
C           34.51835920152192        2.07383183020606        1.33661949779086
C           33.83213618226559        1.01794579519094        0.64974610659126
N           32.48753844304657        1.13446472238265        0.86103477275961
H           35.53733556106938        0.04863509338537       -0.13025392145533
H           35.58150509512160       -2.12575448153235       -1.58429359147997
H           33.69853745613172       -3.68079024859293       -2.70425724636076
H           32.11473758244024       -2.92599353227944       -4.64439681613578
H           32.08540190982356       -4.87500025532779       -6.14831283897981
H           31.68572466108309       -7.12195792519003       -6.38724502651328
H           29.74857381694176       -8.66110474025609       -4.81992780696558
H           31.47868339830549       -8.79654697238400       -4.41218629502522
H           30.89975146462486       -9.22107946084060       -6.04434336420219
H           29.89153227102569       -7.10122332588267       -3.19748479271809
H           29.94155241311845       -5.16228588493909       -1.70772201086420
H           28.38729391728302       -3.46190117694299       -2.96551429379536
H           26.50980026648348       -1.98495758189279       -1.74042817913644
H           26.53653630807664        1.84922124765312        1.86546251793382
H           28.42661190039844        3.35675200575302        3.03177772359419
H           29.87852808206452        5.09926176507094        1.73131799763387
H           29.83633158436710        7.02246919252456        3.24148917945053
H           31.76110299986646        7.06593783446274        6.35458067990585
H           31.42941925071785        8.75289159387851        4.40718126162198
H           30.90431967444541        9.14520282772719        6.06542419030330
H           29.72131282424408        8.56501278592495        4.88141878272782
H           32.22132971078269        4.83674340169933        6.07182786789838
H           32.24192184929106        2.90265946142667        4.54866245433209
H           33.71521784812306        3.71554581213802        2.54330047337886
H           35.58730109604488        2.21936238164571        1.32859847030790
C           23.64600657134995       -0.04886612083291        0.06741897873330
C           22.42412432583432       -0.03887163996464        0.06629180478601
C           24.99562767997554       -0.05452960530432        0.06237832921400
C           26.21749600668273       -0.05571230394477        0.05254608937125
