132
 energy: -253.160150823598 gnorm: 0.000854162024 xtb: 6.5.1 (b24c23e)
Cu          13.18023385117960       -0.01983589705751        0.00904184162005
C            9.77753876404502       -0.00312401627587        0.16786993861853
C           10.41389529415883        1.22244165445599        0.29410629544125
C            9.74040482255906        2.48070966476147        0.44625350164472
C           10.70015298810373        3.43401961561318        0.53626356447263
C           11.97016468975722        2.76435215531643        0.45209627173308
N           11.76472262617318        1.42408092907679        0.29681340404659
C           13.21629241343358        3.39335862362914        0.50375402706002
C           13.23184840874561        4.86298307235239        0.71350677411143
C           12.70512300654793        5.41683084007136        1.87674430418051
C           12.71944089430921        6.79731177975929        2.07239146206594
C           12.14528540583017        7.32691841941400        3.33471020575226
O           12.21413282933085        8.66251407324286        3.43580814721687
O           11.65751651582111        6.64483395258190        4.19924671219373
C           13.26088042244851        7.63590471405563        1.09815175800821
C           13.78461124033254        7.08691303993923       -0.06171841960780
C           13.77308857796731        5.71259671556733       -0.25417364944446
C           14.44812356264776        2.74870282188241        0.37626900045212
C           15.72752451769313        3.38851722252081        0.49830409575001
C           16.67081247661321        2.42868737218192        0.32264879777204
N           14.63279822292196        1.41227514870085        0.14070405572996
C           15.97564551227076        1.19674949263915        0.09897738753236
C           16.60722994990352       -0.03777099631788       -0.13653936979973
C           15.94467837659987       -1.26392932987563       -0.32349492697862
C           16.60509010663198       -2.50201456292798       -0.61027809385348
C           15.63984685213147       -3.45087883365241       -0.71038419643835
C           14.38228307327874       -2.79870810903398       -0.47611887478398
N           14.60062247617175       -1.46474408557578       -0.25388554552027
C           13.13775657308958       -3.43154559500121       -0.49070446307496
C           13.11911053299232       -4.90232615697102       -0.69366798731950
C           13.74081501117126       -5.75003282948167        0.22594029710467
C           13.71924847765858       -7.12619871030703        0.04667348198122
C           13.07980897071952       -7.67315359462755       -1.05312143496588
C           12.45642340383842       -6.83664028145903       -1.98038698246441
C           11.78186396916331       -7.46220773433792       -3.14521830936025
O           11.20303470032874       -6.57743808082180       -3.97053964246109
O           11.74205615739949       -8.64838864404954       -3.35093885697034
C           12.47604167818116       -5.45504992246305       -1.79906607639578
C           11.90767148341339       -2.79098329850316       -0.32217034260837
C           10.62948506011813       -3.44901579438376       -0.28227396268772
C            9.69134588830265       -2.48678834326512       -0.10198605964072
C           10.38744473716686       -1.23465517321136       -0.01799702900046
N           11.72986633597665       -1.44866503098799       -0.15120727374454
H            8.69368795360567        0.00192260732592        0.22071319573089
H            8.66932406433055        2.60521308041847        0.47050048035137
H           10.56687693031981        4.49871321616857        0.64068638058084
H           12.29170702431822        4.77908837520430        2.65041576287738
H           11.82087608509403        8.92814367871949        4.28292597443718
H           13.26897045796294        8.70832175593590        1.25076300194818
H           14.20410567728671        7.73315966928728       -0.82443285453658
H           14.17366597087023        5.29065499453085       -1.16917793231379
H           15.88104923967853        4.43477433502538        0.70769046341653
H           17.74341260137579        2.53574265499837        0.34806331354945
H           17.67075313356889       -2.61881257333408       -0.72606030220610
H           15.76273982220138       -4.49758278450340       -0.93755212007357
H           14.23036537911487       -5.32408311804256        1.09464407213999
H           14.20212502113331       -7.77160380340360        0.77154024768873
H           13.05287258658514       -8.74577603587574       -1.20840278238814
H           10.78732815553415       -7.06454026465854       -4.70049090550191
H           12.00220416992699       -4.80748534338620       -2.52735470074155
H           10.47683330404160       -4.51268748866274       -0.36961375608605
H            8.62191373632253       -2.60175041959761       -0.02146266664788
Cu          31.77499839039636        0.01292273618298        0.01302367658264
C           35.17757665670438       -0.05063150713167        0.16233967334548
C           34.54340379639257       -1.25124386008679       -0.11920599032980
C           35.21885853795318       -2.48947246782351       -0.38481235533633
C           34.26062099224680       -3.42107574120516       -0.61273847638714
C           32.98956856739270       -2.76213725434088       -0.47581251224556
N           33.19297556324046       -1.44435939314230       -0.18484424614697
C           31.74423975256090       -3.37491118346639       -0.63338851248366
C           31.72953807052380       -4.83267482333429       -0.91398275751580
C           32.25623117548865       -5.73521082296082        0.00542236074079
C           32.24028917535801       -7.10429849018591       -0.25846908604948
C           32.81347006400685       -8.01631659288648        0.76296163627079
O           32.74681600989951       -9.31181497851900        0.42237947695881
O           33.29901512501026       -7.65325411098936        1.80360472370632
C           31.69727137594878       -7.57999870853642       -1.45193044562204
C           31.17388905986764       -6.68314703904051       -2.36994120797852
C           31.18711947115098       -5.32095558230945       -2.10508265630670
C           30.51159150095074       -2.72530683160706       -0.54383957101073
C           29.23305768343023       -3.37163374253311       -0.63718589597388
C           28.28842385006286       -2.40848350595466       -0.48928212846456
N           30.32503190425308       -1.38541539998083       -0.32995753646142
C           28.98182832813630       -1.17003293918054       -0.29848639412518
C           28.34794427281807        0.07240610450315       -0.11723089049123
C           29.00830960263430        1.29389877275003        0.10507151726588
C           28.34605083681613        2.55676653188687        0.23790947658732
C           29.31007899710580        3.48795124876025        0.45183461428866
C           30.56859103569531        2.79688240048642        0.46005296187953
N           30.35213080204903        1.46300972423337        0.23551021754890
C           31.81236604228281        3.40133785862623        0.65263837931297
C           31.82996356098698        4.85779804305127        0.94095322870834
C           31.20943378640730        5.35834733654370        2.08768964383427
C           31.23218290593081        6.71744276079831        2.36848395352861
C           31.87168879082570        7.59368535258801        1.50779568102275
C           32.49364773307541        7.10619916676061        0.35726153472081
C           33.16895394530643        8.07774192705335       -0.53897551437214
O           33.74893987405733        7.51078894470157       -1.60724869744498
O           33.20903748872653        9.26605884764839       -0.34592347450817
C           32.47268303028306        5.74138147741797        0.07654922634113
C           33.04320552688379        2.74216959822225        0.60389347173487
C           34.32031683960581        3.35285028583029        0.85762541723812
C           35.25978864675423        2.38546791881513        0.71616417535291
C           34.56559872187968        1.17344651945556        0.38670696787461
N           33.22294132086665        1.41756042439826        0.32845198716106
H           36.26135410595680       -0.07105696604135        0.21288196194013
H           36.29012515572951       -2.61377449146295       -0.40045294439805
H           34.39541826548603       -4.46137742370656       -0.86144792406904
H           32.67047029560027       -5.38419402759840        0.94424752708577
H           33.13939741867353       -9.83898200750786        1.13708213837213
H           31.68744004084018       -8.64379627774572       -1.65610146835463
H           30.75300037411959       -7.04590988130848       -3.30086753847781
H           30.78661698794588       -4.62399895253441       -2.83280465331215
H           29.08084705433321       -4.42909192909995       -0.78096309852685
H           27.21598187834622       -2.51943188302468       -0.50000950428155
H           27.28014005970536        2.70344200708671        0.16710900597883
H           29.18570849838015        4.55136115819305        0.57834554812795
H           30.72013878699144        4.67201337803394        2.76979182008559
H           30.75051464949323        7.09046167807734        3.26511867138533
H           31.89987904908991        8.65799545822983        1.71222845408432
H           34.16550926512863        8.20943093842791       -2.13759042686989
H           32.94554139507642        5.36734249391548       -0.82385982310582
H           34.47128727981553        4.38718582625176        1.12158453059300
H           36.32894465803452        2.46918270597496        0.83137985911512
C           18.01180254354541       -0.04214813267754       -0.18209912828497
C           19.23591630378198       -0.02864497061769       -0.20720614672219
C           20.57848678775824       -0.01053135281678       -0.22535836633414
C           21.80859456616381        0.02314253568614       -0.23042872791900
C           23.14632937331695        0.04849102197850       -0.22376944447254
C           24.37655022005719        0.07496400468028       -0.20874233107541
C           25.71905719225764        0.08532030000797       -0.18461498117709
C           26.94323081184967        0.08900095993536       -0.15743936169371
