150
 energy: -264.058501771148 gnorm: 0.000586860079 xtb: 6.5.1 (b24c23e)
Co          13.19908105555456       -0.01008100827551        0.08448830236819
C            9.84313237972821       -0.24707749156394        0.36639337554220
C           10.53212815352103        0.45951894362624        1.32850519945726
C            9.90361557107895        1.11655580671831        2.43439455460778
C           10.85507074169245        1.87663947029466        3.02516811671544
C           12.06655171248169        1.67447530974289        2.28670392337167
N           11.86945128631387        0.76421724388807        1.27947925245619
C           13.22614946698847        2.41103185381302        2.47911786218124
C           14.38316780317699        2.16167021344250        1.75967524147489
C           15.61595382394494        2.86042322220076        1.96378689870986
C           16.56758351971836        2.18445757828310        1.27645096415270
N           14.57174259871737        1.09670008457304        0.90706739023749
C           15.91248071742159        1.08143624475133        0.64765927555400
C           16.59227305531664        0.07039712960651       -0.03735568683045
C           15.91353772800299       -0.94857186975496       -0.70923339402669
C           16.57442097250171       -1.98196986748591       -1.44283940992417
C           15.61166450437933       -2.65466486272138       -2.11725971424853
C           14.36513957578019       -2.03133432542056       -1.79065278334347
C           13.15734609231128       -2.35546965936230       -2.38704263998439
C           13.14547636726843       -3.35855620844757       -3.48538089722487
C           13.75865325112755       -3.06878920115824       -4.71230286893103
O           14.32568702229920       -1.83867885969524       -4.81696657370451
C           14.99286936364294       -1.45470192932866       -6.00215897131783
C           13.75254013012762       -4.00787824081590       -5.74311602778214
C           13.13923368855239       -5.23505063604886       -5.54178605596062
C           12.52936032279357       -5.54556059864212       -4.33584894240321
C           12.53028283102231       -4.60520433229344       -3.30610284870055
O           11.96868364221007       -4.82215318961722       -2.08779620140724
C           11.32965698340378       -6.04956780363116       -1.80110510808363
C           11.96083199859479       -1.78635910119360       -1.97653543568062
C           10.68503374720363       -2.09551442104701       -2.55160383631605
C            9.74894487220930       -1.52042041295017       -1.76081112663980
C           10.45497751174834       -0.84384374901073       -0.71521230249525
N           11.81032702481006       -0.96948750866234       -0.88471520795728
N           14.55885304705509       -1.01985274808404       -0.87759631194243
C           13.23745864855561        3.48828255935014        3.50626073728342
C           13.22090385710547        3.16556741939241        4.86935422382182
O           13.18987229757948        1.83909374947594        5.16386198188036
C           13.19462403698111        1.40300773344473        6.50815868519956
C           13.24510761609223        4.17380089845943        5.83235047454873
C           13.28013689736374        5.49964870486079        5.42750780140277
C           13.29295760514248        5.84263123493864        4.08393698827046
C           13.27445573252054        4.83436747798592        3.12068789897000
O           13.28161187379253        5.06754583934484        1.78170549308108
C           13.31129159016232        6.39062684637410        1.28579578007490
H            8.76534299371087       -0.32002836561797        0.45396671198164
H            8.86168647350503        1.01340208226441        2.69372097787385
H           10.75834383814509        2.52874714156838        3.87790378604926
H           15.72879924772875        3.74264267151516        2.57247214365139
H           17.62247710704278        2.39394309530855        1.19918490507369
H           17.64005945744117       -2.14630521693358       -1.44234441369295
H           15.72191875424302       -3.49339955896865       -2.78528701330861
H           14.31020926263234       -1.43740071716982       -6.86040859810594
H           15.37075519468572       -0.44620132594888       -5.82434809314724
H           15.83542599812641       -2.12136371338521       -6.22240967982613
H           14.21902224009593       -3.79172302524639       -6.69488447968602
H           13.13681130781993       -5.96622015548139       -6.34271003606421
H           12.06094051106478       -6.51192841260883       -4.20573592603500
H           10.96498238561710       -5.96951124694086       -0.77535336359061
H           10.48033545525622       -6.22701191611542       -2.47205309405756
H           12.02838711520577       -6.89209507945957       -1.87025847930392
H           10.54057617491747       -2.69414782755643       -3.43640321276215
H            8.67478053893372       -1.54302329444584       -1.85670723360578
H           13.16544609795298        0.31236100365987        6.47340615058540
H           12.31609966486664        1.76933247185690        7.05309600468590
H           14.10450033803897        1.72281014140260        7.03033802845603
H           13.23771867155822        3.93542530123232        6.88750253202765
H           13.29820128319323        6.28379341111833        6.17644415653012
H           13.31909945726220        6.88541903795937        3.79734676145170
H           14.22090148453582        6.91698007720945        1.59982311393617
H           13.30309622328319        6.30727047583995        0.19746026210042
H           12.43236107538294        6.96117107958534        1.60969811808335
Co          29.15696499144249       -0.08351188949151       -0.00339147422264
C           32.51402979902868       -0.39221346261813        0.18524883043661
C           31.82501696614168       -1.24391267930306       -0.65108575972763
C           32.45417231664756       -2.24302859912429       -1.46078739132044
C           31.50141751758724       -2.72321825426274       -2.29361510254010
C           30.28881543150440       -2.02456704294214       -1.98480651496458
N           30.48657851192098       -1.15581296386290       -0.94163745793376
C           29.12735494227250       -2.11451311836722       -2.73780380717168
C           27.97005747982666       -1.43901587652772       -2.38753414181149
C           26.73650652467458       -1.54413652122422       -3.10651247613120
C           25.78595255726505       -0.95642049326005       -2.34108090514769
N           27.78297917177272       -0.74264723357455       -1.21419306917852
C           26.44244561675242       -0.48681684479331       -1.16222286927359
C           25.76344218279674        0.05217933454189       -0.06594219450560
C           26.44255396168035        0.57385294752772        1.03724925719434
C           25.78166158889904        1.15577355527497        2.16305659750713
C           26.74500136788816        1.72472655118580        2.92622695339729
C           27.99182405959386        1.48600469370455        2.26476469550665
C           29.20043345043633        2.02660505654455        2.67279193634312
C           29.21229020051543        2.97103703353170        3.82202050208346
C           28.60224862384597        4.22806463106785        3.70749719909698
O           28.04000299556240        4.50752714446698        2.50274337928868
C           27.37428009340895        5.73568656149170        2.28910364717974
C           28.60664563361640        5.11503549390483        4.78345256968030
C           29.21527217113956        4.74007499285773        5.97157461908848
C           29.82245848342383        3.50114686869637        6.10941981348350
C           29.82342655724710        2.61544272685055        5.03225602881451
O           30.38309449272220        1.37785137185380        5.07561820626538
C           31.01929332416207        0.91959549408903        6.25138292304695
C           30.39689058276462        1.70005215191803        2.05169324016583
C           31.67289965793883        2.22378058126379        2.44082597940433
C           32.60853475037459        1.52588222576024        1.75541088479452
C           31.90197861371407        0.58993102128620        0.93424380257552
N           30.54667784839088        0.73845395888921        1.08481360640429
N           27.79753673646470        0.72659258118215        1.13340427017167
C           29.11597438333459       -2.97854585087812       -3.94986697916436
C           29.13624562007192       -4.37365457229860       -3.82482117967016
O           29.16874559167487       -4.85451602462531       -2.55401047616050
C           29.16997999702193       -6.24742232930775       -2.31487977710194
C           29.11405092097202       -5.18307529943448       -4.96013240008090
C           29.07733692742990       -4.59349016039373       -6.21472087342326
C           29.06068987237682       -3.21478802561378       -6.36261414897264
C           29.07705213565423       -2.40516033138042       -5.22728806166084
O           29.06605377672950       -1.04663852136831       -5.26719718492889
C           29.03502243538901       -0.36727647805674       -6.50607453274893
H           33.59216639372523       -0.48708968504887        0.24219115213409
H           33.49718592156467       -2.51097983011250       -1.39893793211835
H           31.59790917900070       -3.47457613010005       -3.06036995067986
H           26.62256012551017       -2.02483968971475       -4.06436444316814
H           24.73095054561168       -0.85019553625070       -2.53688108130239
H           24.71568462777219        1.13544743986195        2.32387892779065
H           26.63498776256214        2.26722324166611        3.85114930349669
H           28.05660062503712        6.58742281192852        2.39814812431072
H           27.00143771806847        5.70413449899479        1.26368103877583
H           26.52838035674566        5.85840174828353        2.97631217441009
H           28.14233871162279        6.08877358306907        4.70316984912366
H           29.21617383819531        5.42886498829605        6.80922901770641
H           30.28718899814973        3.23412072702486        7.04906841736363
H           31.38658398884703       -0.08344636958472        6.02651450961373
H           31.86654815246731        1.55979628087986        6.52580146426950
H           30.31793795258658        0.86614791407337        7.09288992204879
H           31.81773472732839        3.01160782731588        3.16224683413338
H           33.68271133641601        1.61771054620726        1.79074007047626
H           29.19619480450424       -6.36915178534718       -1.23044007430050
H           30.05236501170326       -6.72984894124345       -2.75263673287060
H           28.26380167772506       -6.72304791358098       -2.70910382764268
H           29.12457988858571       -6.26141047702807       -4.87471270370925
H           29.06109675202953       -5.22303668381918       -7.09762589724421
H           29.03360326686596       -2.78247579962319       -7.35386830598555
H           28.12838279522778       -0.60875493471357       -7.07413979564884
H           29.03583116189743        0.69807062013809       -6.26833264512471
H           29.91700293424482       -0.60097673899154       -7.11472098775989
C           21.79228363243790        0.11158227640087       -0.09364655284714
C           20.56347535756091        0.10791460445479       -0.08899111291314
C           19.21930155938846        0.10155198001207       -0.07887719043325
C           17.99519095597437        0.08986748248500       -0.06467129300938
C           23.13644905929453        0.09736080041068       -0.09230480210003
C           24.36051724698537        0.08269506445204       -0.08159974665406
