480
 energy: -834.807089957270 gnorm: 0.000707809906 xtb: 6.5.1 (b24c23e)
C          124.29013982939605        0.00221830081025       -0.05719650789513
C          124.90008768313542        0.76163119009060       -1.04910932282511
C          124.25771907014614        1.54463613999795       -2.04745341818749
C          125.22948943651259        2.12545734110442       -2.81541621679910
C          126.49099141606104        1.71270484971265       -2.30834998499970
N          126.24682894294486        0.89424133108707       -1.24757931746576
C          127.76096568845659        2.07072259505454       -2.79476586569182
C          127.78987524715053        2.94487906897806       -3.90396250387452
C          127.81587930332464        3.70039596779794       -4.85325653661346
C          127.85401287420920        4.58310503054457       -5.95664092153672
C          126.67869198875522        5.03723019834054       -6.56651053676198
C          126.77292856523137        5.90204251158357       -7.64228736785425
N          127.93362258469121        6.32977503734181       -8.13256246753240
C          129.05547948694166        5.90284236490087       -7.55823979716122
C          129.07076949636524        5.03757246752278       -6.47894882400046
C          128.98751507958218        1.63572950441168       -2.26631108472838
C          130.27195527004889        2.03424129539782       -2.80730194066749
C          131.20832158597599        1.43023234515856       -2.04569441274199
N          129.15571937341880        0.81008954189177       -1.20498796760445
C          130.49093172806838        0.66606876583564       -1.04348435105316
C          131.13514457580254       -0.08558334139560       -0.04416968039147
C          130.50124546442069       -0.83207642478688        0.96696138259680
C          131.13597400644881       -1.61033241116256        1.96982975987675
C          130.15961993703920       -2.19180887655648        2.73298733017225
C          128.90287085187398       -1.78467146127339        2.21476402435799
N          129.15569977192254       -0.96469373542934        1.15240602688232
C          127.63377088080969       -2.15529934947452        2.69317102614250
C          127.60421707361736       -3.02833659694090        3.80205651953151
C          127.57921937780239       -3.78397370732020        4.75160174225364
C          127.54265077080794       -4.66794348785943        5.85366957530659
C          128.71936314619606       -5.11357813390847        6.46754474359348
C          128.62805679504240       -5.98091005737860        7.54139074151545
N          127.46887564002350       -6.41887910602779        8.02643256551893
C          126.34585861104046       -6.00001678359123        7.44849806619370
C          126.32758124237034       -5.13309354937612        6.37054601419523
C          126.40614267235671       -1.73076203451082        2.15380131644076
C          125.11468224275697       -2.13387174549020        2.68273563184957
C          124.18476121668539       -1.52935546514384        1.91557110315502
C          124.91132940863555       -0.76092168060966        0.91978331395279
N          126.25142047640809       -0.90840571087544        1.09727841836682
H          123.20494107371411        0.01402759453915       -0.05580154905795
H          123.18925804004169        1.64323836197971       -2.15394751330524
H          125.09520874243404        2.78189470609153       -3.66019713290387
H          126.96285208182879        0.44753259461528       -0.68458212003310
H          125.71197055595911        4.71429707261170       -6.19932213602044
H          125.87724598111657        6.26985815883616       -8.13464709391438
H          129.98473938587395        6.27161229892704       -7.98292705135928
H          130.00782683125169        4.71513154125987       -6.04125596937878
H          130.40968420513468        2.68860478872869       -3.65323776804500
H          132.28183658423984        1.48595322653397       -2.12949061047016
H          132.20300023453592       -1.71231202568393        2.08347261922313
H          130.29023515206657       -2.84688588809337        3.57921651525352
H          128.44242451231776       -0.52374720537128        0.58112811603537
H          129.68470146543706       -4.78209964823495        6.10437346864008
H          129.52473833901237       -6.34240259727896        8.03655067343487
H          125.41802640251976       -6.37699750915098        7.86907045645275
H          125.38956869951799       -4.81754772970632        5.92998085363806
H          124.97195294738923       -2.78964577393784        3.52695898408172
H          123.10977042073624       -1.57890798556363        1.98952459693857
C          207.97044253429166       -0.15719953240923        0.05279504919621
C          207.36925903824473       -0.83835988992566        1.10506194958235
C          208.01944162367974       -1.52985790913604        2.16392757595156
C          207.05342741954470       -2.05914012879914        2.97530346099158
C          205.78793695721492       -1.70513519181421        2.43505610488131
N          206.02385818458859       -0.97108792316772        1.31251109936609
C          204.52157110055106       -2.04310834587018        2.94478079555011
C          204.50272888361724       -2.82387747343516        4.12189311665031
C          204.48930046903720       -3.49578136416243        5.13230782527880
C          204.46667692402130       -4.27919336390778        6.30866453485332
C          205.65116496191692       -4.72037540133649        6.91037077543334
C          205.57410475730333       -5.48555935179468        8.06035034751975
N          204.42159218032560       -5.82743813874768        8.63082574427660
C          203.29117667237963       -5.41198571500318        8.06500037907195
C          203.25869145070428       -4.64368300935616        6.91494627306513
C          203.29002283635202       -1.67395785731193        2.37961712999782
C          202.01154273337033       -2.06267840785402        2.94110988113827
C          201.06700015346973       -1.53373706357843        2.13521481671893
N          203.10986500658746       -0.92845412034347        1.26200347877995
C          201.77293535380807       -0.82217460613727        1.08743885704044
C          201.11714180503151       -0.14028356272534        0.04550918061885
C          201.74386131224136        0.54764656894345       -1.01144442433440
C          201.10289984552006        1.25825905413730       -2.05910448313965
C          202.07397396857655        1.78439837842846       -2.86782289757819
C          203.33404230043072        1.41151758682641       -2.33257790783463
N          203.08822268783047        0.66778866466957       -1.21378267018258
C          204.59910308974582        1.74187465740925       -2.84986602801563
C          204.61746656147915        2.51694140586562       -4.02960433246187
C          204.63019478971125        3.18284226487448       -5.04433058489260
C          204.64950534571184        3.96020669613532       -6.22443064450450
C          203.46282323848430        4.39761625173705       -6.82490518935759
C          203.53593433773284        5.15757516016857       -7.97855575445727
N          204.68653120306570        5.49783702010190       -8.55392264107771
C          205.81894051654717        5.08543871929030       -7.98974443645539
C          205.85544269971223        4.32238279469788       -6.83637221586367
C          205.83199578394294        1.36607052380801       -2.28705576065513
C          207.11809453580076        1.73092352691887       -2.85543388647356
C          208.05585222794767        1.20087489142838       -2.04405075411043
C          207.33936962179061        0.51452663576305       -0.98314144365930
N          205.99741185543715        0.63658744560639       -1.16596758735311
H          209.05567981829174       -0.15752611821980        0.04992850291595
H          209.08880887020558       -1.60637456641459        2.27905140334572
H          207.19447583794218       -2.64402446464937        3.87007785489868
H          205.30361018253063       -0.58013715740370        0.71452131082261
H          206.61148088003222       -4.46492177471910        6.47887017220186
H          206.47716836688977       -5.84153392357707        8.54781599623922
H          202.36906331905624       -5.70870666597798        8.55654708561267
H          202.31496567783259       -4.32701443401504        6.48751245661287
H          201.88318115135343       -2.66087275205854        3.82902865741111
H          199.99480454196603       -1.61036575695332        2.21654556568153
H          200.03552775732643        1.35595374715622       -2.17129206954040
H          201.93725537520734        2.38078591020736       -3.75546202003458
H          203.80483596351564        0.26609437446115       -0.61824253910012
H          202.50393693171168        4.14329187872891       -6.38954211603095
H          202.63113664022569        5.51062660311087       -8.46495055631477
H          206.73929312829992        5.38069373502457       -8.48539905810667
H          206.80060465145468        4.00801218356890       -6.41050496726023
H          207.25196798593799        2.31361125745069       -3.75301875652848
H          209.13012855789435        1.25140092648653       -2.12711056863372
C          132.54541023002537       -0.09921888034508       -0.04066735281280
C          133.76176131443165       -0.11145083257809       -0.03032463048247
C          143.50535049693519       -0.14000844109802        0.01106335978868
C          144.72273898966881       -0.14010522767499        0.02150267822717
C          154.49269707971752       -0.14671788656939        0.05268514300422
C          155.71108370705156       -0.13987396652797        0.05550336747740
C          165.50398905923120       -0.12319729208714        0.05490007189422
C          166.72297065041772       -0.12156147614715        0.05845633298419
C          176.52180719148373       -0.12038205521656        0.05745795468973
C          177.74054864683865       -0.11842220858248        0.05807729805529
C          187.51697390492262       -0.11916185404365        0.05962110379053
C          188.73477750157321       -0.11813933343763        0.06337457855235
C          198.49048677434072       -0.13417161161615        0.04417949280952
C          199.70744543092832       -0.13823699542778        0.04723923867182
C          135.17139005617472       -0.11909934895530       -0.02593668996325
C          135.80524783073795       -0.03285343494890       -1.28024891624456
C          135.17589659370529        0.03614533036549       -2.54896195858423
C          136.15767691826707        0.08660735511718       -3.50265500516736
C          137.41044225090343        0.04835394365254       -2.83896269344588
N          137.15218117424001       -0.02306209672987       -1.50075382817057
C          138.68185074835148        0.08140859806134       -3.44151453183708
C          138.70279924995077        0.15521244795260       -4.85235748413699
C          138.71777016263866        0.21000574443446       -6.06460949806369
C          138.74458981713212        0.26961685553098       -7.47660281648658
C          139.95545116964121        0.28984258092074       -8.17878744757718
C          139.92767525318126        0.34626961094852       -9.56082679703599
N          138.79921442559419        0.38290808744320      -10.26489575834593
C          137.64396946603841        0.36404331119486       -9.60486781077691
C          137.56214103079020        0.30826599418048       -8.22495292217476
C          139.91442568274076        0.04622518778372       -2.77131145117113
C          141.18983219326569        0.11066846231344       -3.45731192876765
C          142.13889543024200        0.05247902351444       -2.49960897184779
N          140.10092324233881       -0.04918852139126       -1.43209714782978
C          141.43897441827286       -0.05308054059032       -1.23486091825381
C          142.09687946616347       -0.13845885441504        0.00630643260380
C          141.46071457200986       -0.22326421773832        1.26058061839094
C          142.08798504549628       -0.33071086242246        2.52752879341543
C          141.10577092849326       -0.38845849511411        3.48005349414417
C          139.85373635026576       -0.32269595244447        2.81723352739062
N          140.11379618722080       -0.22610068103911        1.48040585180491
C          138.58319518647821       -0.34982671497079        3.42096393343442
C          138.56294468981412       -0.42739847357114        4.83150699106874
C          138.54630294616567       -0.48484308651874        6.04362326724392
C          138.51854023622749       -0.54802819654005        7.45539430107714
C          137.30779067265584       -0.52947486760432        8.15786277948501
C          137.33385515753250       -0.59003035911803        9.53971261264210
N          138.46066566533779       -0.66641368565314       10.24338055962314
C          139.61567626381040       -0.68530940216744        9.58309305324415
C          139.69916433710438       -0.62876277365996        8.20325233551574
C          137.34971905697094       -0.30379994122599        2.75196138345848
C          136.07357255529578       -0.33538057674548        3.43934694804289
C          135.12483375618612       -0.27639530801127        2.48122443441809
C          135.82649434759446       -0.20961964399315        1.21462725908866
N          137.16512266505896       -0.22761920000463        1.41229310985735
H          134.10958906922403        0.04095635767720       -2.70621203568705
H          136.03150025050914        0.14342423606374       -4.57180351563466
H          137.85805949157535       -0.06895306762749       -0.77342237180286
H          140.89765272793906        0.26122797806723       -7.64492003665282
H          140.85206431047212        0.36279438640456      -10.13099996883379
H          136.74265339770494        0.39495190367982      -10.21027035392344
H          136.59974691879111        0.29431139265478       -7.72771516149336
H          141.31376320530890        0.19377432981015       -4.52520823969806
H          143.21043506977682        0.08351253581337       -2.61234444093147
H          143.15347766385167       -0.36502741712295        2.68457759778604
H          141.23126341074587       -0.47248644666121        4.54746753203624
H          139.40855770965817       -0.16622683816570        0.75345712173644
H          136.36715934473122       -0.46761952358978        7.62410071911385
H          136.40960700590554       -0.57626067497061       10.11016496751902
H          140.51555294197084       -0.74838124965966       10.18822177891291
H          140.66145135638914       -0.64648733507322        7.70590255763240
H          135.94941668334130       -0.39318050765310        4.50888676066389
H          134.05264879608592       -0.27064909681093        2.59481750328537
C          146.13097483598474       -0.14317603573628        0.02569445737112
C          146.76742309309898       -0.58028263161660       -1.15288809730274
C          146.14289900288389       -1.03670040384481       -2.34058237731633
C          147.12773617628761       -1.37367197443511       -3.23074942560790
C          148.37816082607992       -1.13586619310621       -2.60556548470979
N          148.11512714749117       -0.65726434679755       -1.35473761193729
C          149.64974179724373       -1.36613916104754       -3.16315418888649
C          149.66649937896429       -1.86044745392795       -4.48695983378891
C          149.67469094810545       -2.27245362709904       -5.62840812779857
C          149.68935408759182       -2.74968140606306       -6.95885878739434
C          150.89343606870509       -3.01805519737741       -7.62058252733174
C          150.85307001095089       -3.47992794353485       -8.92401707997151
N          149.71849176520954       -3.68441831824420       -9.58852024366612
C          148.56970657079131       -3.43197684136358       -8.96646815490747
C          148.50048414506296       -2.96791719143415       -7.66493184554358
C          150.88441920618109       -1.15352887816998       -2.53113329818572
C          152.15462056875475       -1.45040243918957       -3.16289669055571
C          153.10908380729740       -1.11948499748883       -2.26814955750813
N          151.07986084618523       -0.65736574360744       -1.28455986389812
C          152.41896276545239       -0.61610274491998       -1.09809966657651
C          153.08464589539943       -0.15070219559144        0.05253996222975
C          152.44518250565486        0.31750956984398        1.21874991435403
C          153.06654746271383        0.81138093737007        2.39264139363648
C          152.08132770328521        1.14107845050876        3.28484945229926
C          150.83229227363319        0.86271693027377        2.67432412146140
N          151.09736155462659        0.37118433047372        1.42838357086909
C          149.56145237726361        1.06157811805665        3.24540104358925
C          149.54559327300910        1.55311209339115        4.57021645469992
C          149.53668662206800        1.96196019878640        5.71280972003951
C          149.51671411024120        2.43344560288476        7.04523196843798
C          148.30902631149300        2.68940319451286        7.70532458005935
C          148.34261646491271        3.14478175597946        9.01124692012168
N          149.47393610787196        3.35404698546043        9.67967902580581
C          150.62615905053298        3.11371571552741        9.05907328064380
C          150.70217354350453        2.65722012992919        7.75526779907251
C          148.32553359889184        0.82152585601505        2.62544234473884
C          147.05363212426951        1.07938933560876        3.27143223632245
C          146.09948055671683        0.74847055163609        2.37612502692523
C          146.79296044882878        0.28534085978259        1.19106479312099
N          148.13224286774323        0.34361124780525        1.37217401478071
H          145.07766947555666       -1.10374419259129       -2.48839541943018
H          147.00473454561629       -1.75753400186745       -4.23058881600154
H          148.81694824461297       -0.39868886286933       -0.66912830345180
H          151.84000070209257       -2.86480995900085       -7.11649492928136
H          151.77179709285849       -3.69602714935580       -9.46168939719640
H          147.66316596834508       -3.60967259529318       -9.53783539430593
H          147.54293416276255       -2.77474860850471       -7.19647424739810
H          152.27174245770809       -1.85991573712971       -4.15344883184949
H          154.17860031896305       -1.20674443481557       -2.36467841012191
H          154.13032266504024        0.90684615632493        2.53150387103691
H          152.20316796256645        1.54515994387322        4.27680892605206
H          150.39643652438502        0.08561556276027        0.75263273816729
H          147.36488406527226        2.53181297677060        7.19807523655525
H          147.42089219816205        3.35127649608719        9.54758951348820
H          151.52982406217757        3.29482003766842        9.63394597541612
H          151.66231843404191        2.47365295264246        7.28821881415486
H          146.93542137091640        1.46585993589923        4.27108231302969
H          145.02848476828112        0.81067780804946        2.48095527258452
C          157.11884509752886       -0.13448238553758        0.05321124225202
C          157.75784057531024       -0.30918344532435       -1.19153693591161
C          157.13961584098288       -0.45810841486594       -2.45763444000212
C          158.12635366737268       -0.64145002691182       -3.38960915587811
C          159.37288950311361       -0.60401568348417       -2.71494497491863
N          159.10541478020147       -0.39144697133742       -1.39339861638943
C          160.64204195308392       -0.78677186764752       -3.29548576883580
C          160.65540704246811       -1.05376529652816       -4.68329945737028
C          160.66407804845008       -1.28311376749227       -5.87496657781703
C          160.67897239549043       -1.55002659364721       -7.26300050514198
C          161.88060787078592       -1.77402308074291       -7.94541886944361
C          161.84146498049188       -2.03333090675339       -9.30374960992479
N          160.71023152648664       -2.08111138977540      -10.00282795637380
C          159.56389209041851       -1.86847971439373       -9.36172168358269
C          159.49371614722648       -1.60154274318893       -8.00599403832557
C          161.87762728924378       -0.73042920852790       -2.63273939124641
C          163.14098686967668       -0.97319755102274       -3.30011874919200
C          164.10121058211470       -0.79599112815254       -2.36865726344421
N          162.08277461905223       -0.42417211992508       -1.32794958304187
C          163.42245350100004       -0.43953442055544       -1.14011847451868
C          164.09590897281424       -0.12470405500814        0.05675045262940
C          163.45484915120812        0.19502449231915        1.27196047059823
C          164.07104272208733        0.54591411685668        2.49824940050022
C          163.08411093179276        0.73058773008789        3.42956154011051
C          161.83850656899764        0.50110729281831        2.79261858217637
N          162.10712429159784        0.19135221619875        1.49037925332230
C          160.57006172437877        0.55157111395715        3.40072266902751
C          160.55772534500940        0.83283174346137        4.78568802998522
C          160.55021157030907        1.07356758629248        5.97511053688484
C          160.53481983139451        1.35157886074818        7.36093863349142
C          159.33196512527738        1.41516156931813        8.07431243536535
C          159.37049761924860        1.68927961888997        9.42974312347209
N          160.50224106853938        1.89804258707855       10.09774826910312
C          161.64978625987081        1.83978598346586        9.42683582392802
C          161.72063922398164        1.57273006304118        8.07116729835030
C          159.33391016523805        0.34991245551526        2.76811368242093
C          158.07006690172611        0.38178643463066        3.47706767419123
C          157.11000659228176        0.18644470354892        2.54889239661711
C          157.79034880806179        0.04341824925942        1.27823642748627
N          159.12971537305117        0.13164715001827        1.44596432342802
H          156.07716287391116       -0.42328640022672       -2.63091701963826
H          158.00674508085561       -0.78933463385961       -4.45071046863843
H          159.80326175684070       -0.30885178051036       -0.66148136775234
H          162.82433601524349       -1.74436229016907       -7.41429060776235
H          162.75831023624275       -2.21122741538576       -9.85833249721600
H          158.66014354591610       -1.91450350335299       -9.96256655266466
H          158.53815022896777       -1.43439477929214       -7.52370505760598
H          163.25036996646111       -1.24420566069327       -4.33798440149941
H          165.16795222755749       -0.89735175798411       -2.47758554417030
H          165.13273962511451        0.64749954740691        2.64575417922220
H          163.20318512580675        1.00192850326674        4.46602629425178
H          161.40991713895571       -0.01736057606673        0.78336079140127
H          158.38769289836068        1.25131234831608        7.56925869095135
H          158.45268386324167        1.74423276694440       10.00804172274488
H          162.55398788977240        2.01498890766997       10.00267746164450
H          162.67718634703201        1.53454510979603        7.56397868511512
H          157.96046315962451        0.53057787384440        4.53934785476166
H          156.04289389439407        0.13304310413096        2.68773290774254
C          168.13096773903652       -0.11990662360123        0.05651819517051
C          168.77249126326930       -0.29979667377498       -1.18684812364937
C          168.15736897140070       -0.45538849437027       -2.45337257197472
C          169.14502798002329       -0.65155291754901       -3.38154324010775
C          170.38996415021671       -0.61615127903250       -2.70409586470809
N          170.12022743067044       -0.39054556895208       -1.38493157221122
C          171.65835215162093       -0.81515963917407       -3.28086168541350
C          171.67147132314798       -1.09996084841210       -4.66512132205681
C          171.67851378455205       -1.34202981693284       -5.85427332078139
C          171.69403343760746       -1.62590104191423       -7.23889466750811
C          172.89352238861289       -1.88356433317083       -7.91305334199849
C          172.85488985268208       -2.15579118775809       -9.26890309741382
N          171.72623377738714       -2.18522542850693       -9.97302612150215
C          170.58181128793527       -1.94118982887023       -9.33959425635709
C          170.51129345364669       -1.65928948697352       -7.98696048959779
C          172.89419169991115       -0.75855549602813       -2.61866300128421
C          174.15638730010235       -1.01840077893012       -3.28198631094839
C          175.11768034821989       -0.83076816362193       -2.35354872936724
N          173.10059720876134       -0.43331426984115       -1.31897461705586
C          174.44022343597476       -0.45117029646692       -1.13122356368722
C          175.11398771385834       -0.12010122676999        0.06071090803811
C          174.47362831402401        0.21613745627984        1.27150713508120
C          175.08929685119821        0.58656287917881        2.49236631539178
C          174.10169501203742        0.78136112049702        3.42105350832745
C          172.85663109789650        0.53927662383407        2.78754145902751
N          173.12596857976695        0.21232392551636        1.48989332292306
C          171.58779380116383        0.59254535700103        3.39472527877981
C          171.57513798222701        0.89036972735691        4.77630875324294
C          171.56837469409649        1.14686634072381        5.96243565591901
C          171.55437710697069        1.44486515869072        7.34413967377846
C          170.35182769720191        1.53034334784652        8.05569806104511
C          170.39225959617863        1.82459180654640        9.40686197095813
N          171.52555393684781        2.03271571549964       10.07242844574602
C          172.67286196314404        1.95328161225829        9.40331217473022
C          172.74186498339282        1.66524172015737        8.05185394498869
C          170.35194242010803        0.37975310701819        2.76524112136206
C          169.08966845937340        0.41407115917111        3.47658582760327
C          168.12834071980257        0.21045514213990        2.55166813893216
C          168.80534234910394        0.05954774182059        1.28052507204346
N          170.14506263500616        0.15037658005320        1.44507018035073
H          167.09591807448180       -0.41755316338925       -2.62995304305197
H          169.02708511470865       -0.80724267239716       -4.44169522171956
H          170.81652763506017       -0.30646954350180       -0.65167237388235
H          173.83525095905384       -1.86953654380240       -7.37778580560591
H          173.77016894130452       -2.35963764118018       -9.81714484165118
H          169.68009794365889       -1.97326416408665       -9.94432878279341
H          169.55748769105188       -1.46634804240252       -7.51081511714698
H          174.26435914355113       -1.30685035890529       -4.31528521469207
H          176.18403831525438       -0.93988614984392       -2.46035903850015
H          176.15083730715810        0.69431851342306        2.63766599953217
H          174.22000040899934        1.06785262945398        4.45353082814780
H          172.42972148756141       -0.00760163102958        0.78532620588481
H          169.40630220603356        1.36795511279131        7.55251868167843
H          169.47466757061073        1.89718873294628        9.98357469308521
H          173.57838734358808        2.12856654161553        9.97703473948270
H          173.69827764319385        1.61026309008796        7.54597691925745
H          168.98168538493152        0.57044506316933        4.53793082521406
H          167.06195844892883        0.15747787811567        2.69342467322870
C          179.14859760772211       -0.11945342433281        0.05536220191888
C          179.78698735418320       -0.24842666781707       -1.19568411532003
C          179.16633399597038       -0.35455726964213       -2.46491025690884
C          180.15052945534609       -0.50556153638732       -3.40517534305445
C          181.39865973391272       -0.48910239565402       -2.73293118175274
N          181.13418572068380       -0.32227478988027       -1.40382494488729
C          182.66674550287266       -0.64399915766442       -3.32364478903381
C          182.67953363080900       -0.87186517184096       -4.71827626258928
C          182.68951560097977       -1.07499117584436       -5.91467795938933
C          182.70738082124541       -1.31833129111863       -7.30701593140243
C          183.90960011723308       -1.54460167723041       -7.98763620212946
C          183.87388322241509       -1.78226953044629       -9.35005544825034
N          182.74550256033459       -1.80634313756438      -10.05481948402330
C          181.59854130024971       -1.59150696757994       -9.41540425448988
C          181.52499240622834       -1.34552841625657       -8.05592884682790
C          183.90312029786762       -0.59768053102967       -2.66137577255999
C          185.17042996893716       -0.79081120101836       -3.33802568510425
C          186.12808297599889       -0.64560924988189       -2.39814015188269
N          184.10243819897966       -0.35054430982056       -1.34376425695045
C          185.44169796098484       -0.36093777550596       -1.15438141302550
C          186.10916827199887       -0.12010798879436        0.06128191421041
C          185.47374969041880        0.12242849901317        1.29568339998278
C          186.09757910385235        0.39970907846162        2.53757957417215
C          185.11382086881724        0.54513037527452        3.47946965422874
C          183.86445559705098        0.36435523717176        2.83371320900904
N          184.12692722888778        0.11918447880439        1.51691900528894
C          182.59508283584361        0.40376793167869        3.44040380099842
C          182.58045257868091        0.63154441434333        4.83506060512432
C          182.57211043874963        0.83468788598698        6.03148740013740
C          182.55751833523857        1.07201751981494        7.42487713010010
C          181.35425198102146        1.13517842374830        8.13756176957047
C          181.39413663831226        1.37099727114668        9.50014398363542
N          182.52758453427367        1.54275506564403       10.17579495120780
C          183.67556669654880        1.48418621714181        9.50568557998671
C          183.74515682948297        1.25371258603991        8.14325624866499
C          181.36010495189839        0.24116644008371        2.79430940390528
C          180.09407551719318        0.25532194769532        3.49953739127819
C          179.13633873026637        0.10430725395649        2.56095657970347
C          179.81969849685049        0.00593724341620        1.28767617098739
N          181.15903978954634        0.07720773940853        1.46341679370448
H          178.10367222427797       -0.31565731843547       -2.63479598605476
H          180.02852473789557       -0.61717712866572       -4.47043126766385
H          181.83467676103976       -0.26653418946308       -0.67190864297040
H          184.85116035823992       -1.53407849468311       -7.45200783777550
H          184.79135635542946       -1.96182443543880       -9.90306861323953
H          180.69720245037104       -1.61849054471268      -10.02094170299213
H          180.56905460638450       -1.17624765513022       -7.57511586238585
H          185.28387952433985       -1.00894595649752       -4.38787282057672
H          187.19698438368732       -0.72694238997063       -2.50949425119338
H          187.16148282502800        0.48218398520467        2.68618064624136
H          185.23710155865041        0.75966247366389        4.52871880565611
H          183.42523793372266       -0.04278304843429        0.80217270127295
H          180.40853961384724        1.00110595176146        7.62647502793453
H          180.47602102001625        1.42522420038862       10.07803948458879
H          184.58117040369305        1.62878526808848       10.08777846521453
H          184.70207296259301        1.21411072526674        7.63687458575366
H          179.98154981148636        0.36293165768333        4.56646694205838
H          178.06856274060823        0.05460294769594        2.69411662944599
C          190.14281525537226       -0.11737995975934        0.05983902720823
C          190.77362840042298        0.07299714355704       -1.18600045120132
C          190.14216420154847        0.29018423966949       -2.43639013636179
C          191.12057840323916        0.41310465920412       -3.38666809081770
C          192.37466866542596        0.27897067554157       -2.73843716463291
N          192.11957425413962        0.08005245453422       -1.41196240946582
C          193.64168696642187        0.32844839043310       -3.34842085552959
C          193.65214602588290        0.50833943329202       -4.74980140952472
C          193.65798769753053        0.65804125858817       -5.95410022615855
C          193.67166057989377        0.83016484445734       -7.35697987124257
C          194.87367015181547        0.84331360056388       -8.07440425799392
C          194.83294165740574        1.01248906659992       -9.44686674259855
N          193.69993694663336        1.16566500592329      -10.12762997366470
C          192.55312271804411        1.15481004317709       -9.45293140432211
C          192.48438256551140        0.99171527261377       -8.08082030000510
C          194.87957950655658        0.21406123031780       -2.69643316333414
C          196.14922433908799        0.26047297773026       -3.39466139286706
C          197.10587130410170        0.13372965092192       -2.45108587383115
N          195.07605735909658        0.05973222713374       -1.36494684654090
C          196.41599088098590        0.01379349993011       -1.18228343079623
C          197.08153397000754       -0.13165113372291        0.04821411510108
C          196.45269449168541       -0.27558083758025        1.30047955948663
C          197.08587951485757       -0.39701181434813        2.56295619151746
C          196.10764490674779       -0.51396901527691        3.51443789757618
C          194.85285377017573       -0.46361631754527        2.85571989772034
N          195.10656907867786       -0.31643108445049        1.52277352172217
C          193.58483281329828       -0.55903234279523        3.45919465081401
C          193.57504311377687       -0.72695063317615        4.86218279161456
C          193.57285043450659       -0.86563658546652        6.06779472418853
C          193.56614553450120       -1.02364439868337        7.47241698821873
C          192.36601727497859       -1.12000077575520        8.18662955196642
C          192.41449156728638       -1.27076922227859        9.56098638582478
N          193.55333979784066       -1.32978752936284       10.24667417345964
C          194.69842839448771       -1.23934067495760        9.57507915298873
C          194.75956684728138       -1.08693461190059        8.20136930887841
C          192.34769600676228       -0.50124556855319        2.79954586833078
C          191.07849460722406       -0.63816279194023        3.48621874904001
C          190.12180217399393       -0.51984452254365        2.54171067943736
C          190.81054284425082       -0.30450822634711        1.28502532166506
N          192.14991011240443       -0.30738193800838        1.47245790884317
H          189.07670090860071        0.35007394738331       -2.58457995090826
H          190.99108689742260        0.58407334019940       -4.44315525915704
H          192.82666643779240       -0.04474420168979       -0.69512440856571
H          195.81892832948526        0.72176359928031       -7.55936741938876
H          195.75012330137753        1.02609230243013      -10.02859335265819
H          191.64785455148592        1.28244460335830      -10.03949752232639
H          191.52846724304527        0.98877568943727       -7.57104514171951
H          196.26439545066594        0.37290204533856       -4.46084478799789
H          198.17630990079431        0.11330809149418       -2.57700514054075
H          198.15212268985636       -0.38946511951103        2.71900039477423
H          196.23774730043885       -0.62373156255385        4.57895740496803
H          194.39871239548572       -0.24424193920206        0.79950415214679
H          191.41609709249406       -1.07637929504583        7.66766448264455
H          191.49886835131184       -1.34775852710188       10.14023914298178
H          195.60871050907969       -1.29131940854404       10.16547865151663
H          195.71443745984556       -1.01692164501954        7.69443276771958
H          190.96344442571936       -0.80578426144476        4.54514652261116
H          189.05182821272791       -0.57593637765262        2.65826159546630
