187
 energy: -337.904665661855 gnorm: 0.000836610954 xtb: 6.5.1 (b24c23e)
Fe          32.06377153210951        0.02433377871295       -0.08004825873174
C           28.67644262974561        0.07124178704281       -0.25167805362051
C           29.32996334482390        1.27961601664416       -0.12878552538055
C           28.65097917207289        2.53750381800825       -0.04503815837465
C           29.60291397700099        3.47881321416156        0.15357002954454
C           30.86414342858628        2.79528931187121        0.17160301658873
N           30.68358272587924        1.45021471045617       -0.00172183379479
C           32.08490789174578        3.42648720390777        0.38598508892123
C           32.09617492057757        4.89244967972897        0.60351124395217
C           32.51124122333173        5.41895124975769        1.82994295837298
C           32.52407522522810        6.78559208773571        2.03264711328374
C           32.12822314410350        7.65595076369697        1.01174210894441
C           32.15816924709748        9.11085875423453        1.25069599922599
O           32.51210899549928        9.61101080705036        2.28735920228015
C           31.71547659648979        7.13013835387796       -0.21474643485521
C           31.69739288491068        5.76116191178688       -0.41545364388221
C           33.29663546777846        2.75149760040071        0.38806767445587
C           34.56699150046287        3.40000153325254        0.52837002014931
C           35.51254104370574        2.44170032489987        0.38234004550104
N           33.46915756271245        1.40541092249563        0.16739575091211
C           34.81784976749437        1.21273307925361        0.15668945425972
C           35.47506019168291       -0.00558028560526       -0.05623582739274
C           34.79845756029631       -1.21891161061958       -0.23182458407456
C           35.47295714126867       -2.46491399851803       -0.42267506723537
C           34.51367771883752       -3.41859965617141       -0.48727204164584
C           33.25534790138944       -2.74934767738979       -0.33692305979925
N           33.44760205009066       -1.39532973610320       -0.19977479710234
C           32.02959997127200       -3.39906591013331       -0.35716955216504
C           32.01830524496422       -4.87641408962312       -0.46419684252670
C           31.45136503984476       -5.50027467617978       -1.57869247962638
C           31.44711466023743       -6.88002281450836       -1.68202724741676
C           32.00509203793486       -7.66313621584070       -0.66885305451088
C           32.01215025299538       -9.13543132281183       -0.75430650205658
O           32.47703440758684       -9.85214272869694        0.09433946016636
C           32.57008685410198       -7.03861703180357        0.44793088752596
C           32.57995454416565       -5.66065083938470        0.54765674184190
C           30.81370522211204       -2.72549623291262       -0.30313331052147
C           29.53624878700576       -3.37812085261986       -0.32807937487155
C           28.59870402980397       -2.40200650444412       -0.32285291560603
C           29.30385927509594       -1.15692917705560       -0.27201779663764
N           30.65746622244814       -1.36753511392798       -0.24168154365379
H           27.59396896632242        0.08632563646916       -0.31120713841121
H           27.58213919290041        2.66164522052376       -0.11569211501757
H           29.47429374200161        4.54068933121549        0.28629389371516
H           32.81017604867198        4.74540931829157        2.62507079767324
H           32.84015828344192        7.20317334546688        2.98255338885818
H           31.82174730004127        9.72196650586302        0.38613929886127
H           31.41039276953289        7.79876402569116       -1.01314168005367
H           31.38873564322934        5.35563873064282       -1.37234566489398
H           34.70691566536281        4.45491091612763        0.69871746117462
H           36.58521406158665        2.54270060992407        0.41831656193327
H           36.54248820050402       -2.57900574791729       -0.49482151453072
H           34.63595195124697       -4.47895114714496       -0.63600700182887
H           31.02918328799385       -4.89418389393131       -2.37229258135142
H           31.01042764992676       -7.35655595402946       -2.55367501470728
H           31.54531833543097       -9.54072625020872       -1.67725815138772
H           32.99879464758312       -7.65512912396603        1.23070368756280
H           33.01027138971120       -5.17877237863827        1.41823799939668
H           29.38850189651635       -4.44567110398914       -0.34288064533911
H           27.52465447204226       -2.49637931062618       -0.34103553942775
Fe          58.89003552926661       -0.03872160405246       -0.10154768667620
C           62.27461375183348       -0.06154659063452       -0.30545343100410
C           61.62743823500141       -1.27740497177097       -0.22917252142950
C           62.30965541033090       -2.53568304828989       -0.19103006814816
C           61.35411743207730       -3.49325997049403       -0.14432368849361
C           60.08891411180014       -2.81758073375813       -0.17635946277862
N           60.27022606952711       -1.46136715192394       -0.19463902476918
C           58.86098194104302       -3.46926496561315       -0.22112049836605
C           58.84231144321002       -4.94988495728080       -0.25165566697387
C           58.24030134288233       -5.66594789481829        0.78736779214401
C           58.22091194155709       -7.04704217363163        0.76234116551716
C           58.79692000115502       -7.74328116262994       -0.30543219694042
C           58.75799640989957       -9.21731277202010       -0.31155956368149
O           58.24618899808918       -9.87625961866452        0.55685840923724
C           59.39532674566300       -7.02842921727055       -1.34573588820153
C           59.41995297038461       -5.64527550291135       -1.31718332496454
C           57.64871744351087       -2.79478859519934       -0.25489843494550
C           56.37941424371559       -3.44359568190277       -0.40140336372232
C           55.43803917912896       -2.47027744173077       -0.37231615020217
N           57.48167624228446       -1.43390561344997       -0.16270311157867
C           56.13436218436058       -1.23270188063854       -0.20644370788499
C           55.48084551391879       -0.00639040400617       -0.03388458628069
C           56.16215649381631        1.20207490878102        0.15618897029756
C           55.49397400836858        2.44809378545736        0.36818190686557
C           56.45757411908748        3.39647539150482        0.44457084499251
C           57.71279930166167        2.72468015415947        0.27841083062162
N           57.51336576264066        1.37406263958621        0.11617871688403
C           58.93199570161798        3.38043197983618        0.18943046161216
C           58.94998107381147        4.85627467609883        0.32331449669722
C           59.32028437947955        5.65727634506231       -0.75996226372379
C           59.33226992893859        7.03561847671804       -0.63924768353524
C           58.97927595039585        7.63883270943939        0.57014327753705
C           58.98619638886525        9.10541306165499        0.72534941794934
O           58.69771465317253        9.67079268193216        1.74861682775708
C           58.61114440346327        6.83637345144966        1.65503818750000
C           58.59339464273891        5.46021835794075        1.53227923559059
C           60.13496091416644        2.71951434550652       -0.03695667932985
C           61.40442745439842        3.38043866683227       -0.13811283829391
C           62.33789290215444        2.41302128029533       -0.29438032626235
C           61.64027542840820        1.16273742108172       -0.27067965685484
N           60.29232522608824        1.36333909038865       -0.12622251670965
H           63.35660481200841       -0.06823773169843       -0.37422679983008
H           63.38187559393027       -2.65050879992714       -0.19196134646320
H           61.48188554386314       -4.56216428134471       -0.09036362528698
H           57.80162775560068       -5.12806309807539        1.62017822343133
H           57.76104378145321       -7.61070502960806        1.56697458411210
H           59.24417872953713       -9.68273144686881       -1.19527338641014
H           59.84015962938860       -7.56099114205739       -2.18006484320758
H           59.87333699565278       -5.09252880202125       -2.13224897110028
H           56.23827148756948       -4.50522853921947       -0.52201648076476
H           54.36712053383336       -2.56643433039110       -0.44998659741714
H           54.42480893601417        2.56658654050976        0.43904973772576
H           56.33842242536712        4.45868131865600        0.58220222246620
H           59.58324920274391        5.19138765027531       -1.70294240399501
H           59.61560499910944        7.65116509177877       -1.48684700511487
H           59.28610046697950        9.65915250973928       -0.18979092040056
H           58.34094912032843        7.31394280774470        2.59075523491552
H           58.31668607010749        4.83955796447468        2.37696793140345
H           61.55133507174795        4.44679517215066       -0.08311796431229
H           63.40604676331082        2.51554521087296       -0.40106128131648
C           38.09944389883248       -0.02020961543085       -0.07407698051335
C           36.87514950322181       -0.01410699998317       -0.06960694033544
C           39.44462299352929       -0.02502302325700       -0.07077817614502
C           40.66911966349005       -0.02872650359138       -0.06382860095873
C           51.51054886591676        0.01623278706551       -0.02888094012627
C           50.28623196013499        0.01354174742696       -0.02560718908762
C           52.85616323989286        0.01389672111326       -0.03187447759732
C           54.08025391348821        0.00681665612539       -0.03155725142141
Fe          45.47728555344364       -0.01841114738671       -0.00999139709863
C           42.06775357141458       -0.02706807396121       -0.04889209920223
C           42.73549901913793        1.19651297773450        0.10031638176506
C           42.06280692432431        2.45302683498840        0.19958758320245
C           43.01155329002195        3.37882294587292        0.48403511493791
C           44.25815988058789        2.67886893749169        0.56616828676563
N           44.07767783430346        1.34830209571724        0.27895155294541
C           45.45830926730043        3.26250739946150        0.95579006639209
C           45.44868438564421        4.68066636468513        1.37833470922272
C           46.21539764156530        5.62817796058141        0.69310082961242
C           46.20258880140660        6.95215452567239        1.08741263375804
C           45.42791324066938        7.35807122547067        2.17888776373919
C           45.43465405067538        8.77762016416497        2.58091027415558
O           46.07978895898283        9.62640116724238        2.02168629483371
C           44.66362048146171        6.41197769099179        2.86563259758293
C           44.67180889980688        5.08713777036707        2.46680518589264
C           46.66763778690524        2.57697519951841        0.95992605474726
C           47.91067921086473        3.13823030261590        1.39701912389418
C           48.87182520172614        2.22573004490640        1.11167255533730
N           46.86315995544159        1.30927706988720        0.46937758056716
C           48.20974608269404        1.10786296212364        0.51730535333118
C           48.88707190921460        0.00381684958486       -0.01817162183191
C           48.22108459052326       -1.11350382664292       -0.54025955755727
C           48.89540464198158       -2.23200319713034       -1.11952022250494
C           47.94620427161986       -3.16469884012389       -1.37850456686270
C           46.69758833814394       -2.61247095709798       -0.94618940417539
N           46.87776622186309       -1.33370300253903       -0.47978923644752
C           45.49532312494273       -3.31069786761719       -0.93730760412049
C           45.50489848403676       -4.73469807302187       -1.33997558249427
C           46.27314464124051       -5.66356762478511       -0.63255733014859
C           46.28564017083592       -6.99462778646670       -1.01006666624560
C           45.53479220875045       -7.42158582092254       -2.10770709850888
C           45.53639058957006       -8.83319977911274       -2.53657122314185
O           44.90885258536711       -9.24539800176728       -3.47772799243030
C           44.76712082780871       -6.49187234285289       -2.81663560212188
C           44.74931975976670       -5.16417302943694       -2.43532958546540
C           44.28490919857075       -2.73033643330068       -0.57652524497113
C           43.04017031939295       -3.43579712486850       -0.51342938504292
C           42.07963165087596       -2.51015345621179       -0.27131680991536
C           42.74355483813655       -1.24883345415469       -0.17416118682036
N           44.09047175293183       -1.39605675878397       -0.31592499453311
H           41.00191774964535        2.59377694239589        0.06991120764000
H           42.88734312305332        4.44042817799750        0.62210212844195
H           46.80637111575890        5.31859066882186       -0.16139361175938
H           46.79001176369229        7.69466466302743        0.55806496528698
H           44.78936454969205        9.00728294281389        3.45521435617937
H           44.06236322305808        6.71786914506505        3.71556221806179
H           44.08753095769223        4.35231701035301        3.00906807491766
H           48.02448296930894        4.10325612009404        1.86305486249947
H           49.93423469582778        2.29036884234653        1.28262765803500
H           49.95745450862019       -2.28444422560760       -1.29678201449317
H           48.07126457060411       -4.13724673606861       -1.82571348872605
H           46.84801625091754       -5.33649983179705        0.22646853044375
H           46.88076159042308       -7.71012249028913       -0.45207961553681
H           46.17473684501626       -9.49779688823969       -1.91650678508608
H           44.18951172684620       -6.83228507724759       -3.66932423435173
H           44.16407378893825       -4.44312092946087       -2.99463263490235
H           42.92483642976494       -4.50023053664238       -0.63644363261366
H           41.01632124742702       -2.65418415888492       -0.16756839940611
