229
 energy: -348.186891389726 gnorm: 0.000618839571 xtb: 6.5.1 (b24c23e)
Zn          32.94538013427992        0.01523869281937       -0.01322885923685
C           29.52705872438844        0.07678663073745       -0.02241802403133
C           30.16709224227892        1.21147528992477        0.46313702493641
C           29.50815066952724        2.39069111880311        0.95394700088394
C           30.47841583405181        3.26097613072933        1.33110472655194
C           31.74224940095004        2.62288497880798        1.07513623801646
N           31.51851390082147        1.38374387664352        0.54989485434991
C           32.99642548352939        3.18510394794597        1.32672861984526
C           33.02267547988538        4.56160453596047        1.90373157716717
C           33.04033619723496        5.67305487141893        1.05632095702157
C           33.02862359362187        5.47810731633873       -0.43661083884253
C           33.06849561664001        6.95024405415291        1.60373082625021
C           33.07876957081489        7.13648102220745        2.98244681588084
C           33.13153985267799        8.52452200675519        3.56187654088589
C           33.06151578797996        6.02360395207555        3.81661710298130
C           33.03327644773309        4.73737429001406        3.29011621472101
C           33.01368727600660        3.53665284023439        4.19830667201007
C           34.22998921682405        2.57584580563524        1.08676424119331
C           35.50965714850946        3.17182517060336        1.35431697217980
C           36.45466262876670        2.26932724224932        0.98605190509579
N           34.42076298805446        1.32583472204723        0.56228215228498
C           35.76266835834912        1.11499228025074        0.48944396298964
C           36.38762248743112       -0.04657743395780       -0.00502073697064
C           35.72546922292607       -1.18610061798963       -0.50184011925944
C           36.37868595832162       -2.36491629927496       -0.99359082195663
C           35.40404103383700       -3.23354678023885       -1.36627495897791
C           34.14495496581246       -2.59184501656526       -1.10649908370965
N           34.37745805297741       -1.34906924828800       -0.58168618020307
C           32.89092793383099       -3.15508890022163       -1.35263584081457
C           32.86647945168328       -4.53335309598330       -1.92559746682103
C           32.89103460780722       -4.71531912500073       -3.31168964679925
C           32.93839221385202       -3.51869072566429       -4.22424459354680
C           32.86950006245920       -6.00305811773706       -3.83245429815612
C           32.82406040054755       -7.11306608330633       -2.99341920130084
C           32.79514959201460       -8.49868046871675       -3.58044031801186
C           32.79858899609010       -6.92084833704923       -1.61703042129426
C           32.81963023915941       -5.64041975270711       -1.07463012458117
C           32.79175875415782       -5.43909561923410        0.41724436042150
C           31.65701743498931       -2.54661705257008       -1.10792192291667
C           30.37253335121638       -3.13893687067329       -1.37093337142020
C           29.43199857204009       -2.23447252906551       -0.99900839181187
C           30.12993140740989       -1.07959741847335       -0.50447604200711
N           31.47489564202851       -1.29999866475144       -0.58409224208409
H           28.44158951809300        0.09544843408396       -0.02557685957078
H           28.43843969634549        2.52388930214270        0.99936018596561
H           30.36059027381333        4.24903776018307        1.74738240700338
H           32.12329956165486        4.94983364042745       -0.74211821870997
H           33.88576938251332        4.87743211264675       -0.74688467711792
H           33.06620058962243        6.43560112104365       -0.95534307239006
H           33.08204697945859        7.81296926086736        0.94557090697683
H           32.68904577300150        8.54757800587857        4.55798916158005
H           34.17006429910369        8.85402961147776        3.64327160314164
H           32.60145753602232        9.23193761707279        2.92349480096426
H           33.06947426527849        6.15928689459421        4.89325124005340
H           33.87707773735900        2.89840379516613        4.00073363362605
H           33.03442768409719        3.83882677265895        5.24498146698292
H           32.11384145012337        2.94388873989055        4.02256470206250
H           35.65705672460069        4.15590860242041        1.77005774679251
H           37.52717558674873        2.36864025272145        1.04087256570716
H           37.44735743155211       -2.50217565493913       -1.04200844608031
H           35.51841358325637       -4.22288827671010       -1.78001824179798
H           32.06294772130724       -2.88628922261904       -4.06401030335955
H           32.96112124899767       -3.82595676432754       -5.26940565746293
H           33.82598825050646       -2.91814557064892       -4.01625762097496
H           32.88917391403400       -6.14527818074538       -4.90813157108965
H           33.61754713064600       -8.63153364068202       -4.28533466437335
H           32.87728999208036       -9.25572879114484       -2.80066269432822
H           31.86010813060767       -8.65885607501171       -4.12123558764115
H           32.76292792154599       -7.77953059943035       -0.95448390593056
H           31.90133211055050       -4.87715269212131        0.70614799217007
H           33.66494210500713       -4.86847380208867        0.73920809226589
H           32.78590621722983       -6.39513642524904        0.93994460141902
H           30.22186702764685       -4.12200365884778       -1.78840205253759
H           28.35847743523372       -2.32928410336634       -1.05019288984045
Zn          59.94432718860974       -0.02903246831687       -0.05605811705411
C           63.36240309426801       -0.06564966407773       -0.09481254977683
C           62.72392355948967       -1.21325762077617       -0.55122913281496
C           63.38461029696561       -2.39741327229840       -1.02758478162265
C           62.41559690034334       -3.27922196843073       -1.38041529491987
C           61.15075913765062       -2.64289358880297       -1.12506818178612
N           61.37270092528731       -1.39432439528961       -0.62173953881175
C           59.89738878039547       -3.21298073447687       -1.36259371491193
C           59.87303808121951       -4.59770881927992       -1.91967401428821
C           59.88689467200025       -4.79551944043874       -3.30317193816724
C           59.93033998118612       -3.60944501290156       -4.22960452134754
C           59.86047237638464       -6.08967056023900       -3.80954694135286
C           59.82111377089335       -7.18919882733370       -2.95813489810781
C           59.77072755742806       -8.58502581343050       -3.51877753715354
C           59.80684450836177       -6.98106808580799       -1.58287553251469
C           59.83258313447297       -5.69531456345123       -1.05533464079462
C           59.81757096587592       -5.47694301518842        0.43431899193445
C           58.66290279089418       -2.60512721813618       -1.12376258399765
C           57.38394749011025       -3.20567089364600       -1.38447766485424
C           56.43773807118016       -2.30557056572706       -1.01342330381351
N           58.47053764753366       -1.35389373089251       -0.60284981359169
C           57.12833191369369       -1.14819376862586       -0.52192700292070
C           56.50217763329876        0.00934192336619       -0.01977872062039
C           57.16293290113619        1.15318901752099        0.46879712035800
C           56.50807870785118        2.32591742168652        0.97273469325815
C           57.48137184125353        3.20476537868269        1.32436658827550
C           58.74121657820295        2.57569598685973        1.03867987449016
N           58.51059870700431        1.32898468593835        0.52254320141216
C           59.99412418408545        3.15458203800144        1.25188793460430
C           60.01571471869539        4.53823670968282        1.81175468514969
C           59.98285466381206        5.63907556359892        0.95014413005353
C           59.92821517632088        5.42424471682814       -0.53909147989332
C           60.00197442280146        6.92288065683428        1.48042154966705
C           60.05281784020310        7.12737445390588        2.85657496453037
C           60.07962349800414        8.52761724257909        3.40787939268147
C           60.08566316770246        6.02611656058498        3.70402202973645
C           60.06728846005313        4.73223459011284        3.19423996320345
C           60.10280853662296        3.54349235576727        4.11759288903244
C           61.22884898183266        2.55658244943248        0.98644466104717
C           62.51240550518609        3.16557304906448        1.21338002375063
C           63.45421741469884        2.26396481443312        0.83775210089539
C           62.75797451689914        1.09455018720476        0.37603260501071
N           61.41276608522312        1.30407872535392        0.47743667718238
H           64.44791262683121       -0.07650515760248       -0.10708611889765
H           64.45455372602430       -2.52596136387098       -1.08028132519289
H           62.53487466858034       -4.27427352681357       -1.77926389376363
H           60.84131435900262       -3.03155068353634       -4.06159175199735
H           59.07925486146083       -2.95171664974419       -4.04308904751252
H           59.90557393512675       -3.92716546303934       -5.27158052289656
H           59.87131189997667       -6.24283695126972       -4.88381909656395
H           60.21401956087422       -9.29922738032609       -2.82445789618338
H           58.73267770231925       -8.87878576611178       -3.69171502226650
H           60.30121474793575       -8.64107595914372       -4.46971408687603
H           59.77594791795423       -7.83285064942587       -0.91120247845815
H           58.94797134586122       -4.88238137861246        0.72096575870255
H           59.78269299780637       -6.42662661517368        0.96740185866509
H           60.71104812697563       -4.93258298225393        0.74627267056067
H           57.23783200643019       -4.19027557913582       -1.79945602511375
H           55.36530852521221       -2.40821084529827       -1.06359017702202
H           55.43931689835911        2.45223255281250        1.04361855289780
H           57.36562143465613        4.19271367828974        1.74102634508037
H           60.80220640819213        4.86113677268938       -0.87231536358897
H           59.90212239672455        6.37561537439974       -1.06966119607715
H           59.03948434987931        4.84947256450558       -0.80667500359251
H           59.97602959071099        7.77781115152491        0.81250084038937
H           59.25555663933690        9.11450783234112        2.99882728656476
H           59.99910766497378        8.52185978923445        4.49479634395352
H           61.01334414926617        9.02243282789583        3.13261816418313
H           60.12502492651065        6.17493401014998        4.77820891884429
H           60.99472392309178        2.94333194752472        3.92684165189739
H           59.23130130423577        2.90763128863966        3.95064207516105
H           60.11115513412787        3.85950781736136        5.16034496881246
H           62.66159935958120        4.15743494329049        1.61006138838419
H           64.52755786058570        2.36983379969591        0.86583796657862
C           39.01733748109901       -0.07920339640776        0.00360908869910
C           37.79603508080247       -0.06820330161216       -0.00164261555267
C           40.36922621133383       -0.08627000159976        0.00722251469228
C           41.59061716793688       -0.08837235446289        0.00480245043456
C           52.52067842612814        0.02752073858295        0.00793256747590
C           51.29934532246682        0.02273810378465        0.01424460048227
C           53.87252917504497        0.02593732037527        0.00356184434339
C           55.09377114908256        0.02267850412797       -0.00660275437343
Zn          46.44577564164268       -0.04104391997952        0.01094588854854
C           42.99878680787160       -0.07993859975504        0.00813743890828
C           43.63935953733734        0.11202970261219        1.24800589398723
C           42.96406226716869        0.28760110349284        2.50106694047934
C           43.92234394198860        0.42458464197135        3.45338749565131
C           45.19244030270688        0.33561054920129        2.78882623184279
N           44.98407586403024        0.14695135928887        1.44926220101613
C           46.43599219263434        0.42684354827051        3.41768908943716
C           46.43383624737652        0.61595685870342        4.89856554545774
C           46.44167651307701        1.90438544571092        5.43931976742814
C           46.45050162831740        3.10105153192941        4.52569370906501
C           46.43995120932667        2.06693378257970        6.82010033989729
C           46.42970443381626        0.96531741814500        7.66878127803912
C           46.44711076356131        1.14857707694318        9.16252719331009
C           46.42268946889509       -0.31326770883933        7.11969777666543
C           46.42411954349563       -0.49851029255317        5.74247674876052
C           46.41511481225333       -1.88458620206508        5.15459759786065
C           47.68216031444489        0.35573658678505        2.79118542635015
C           48.94876266536841        0.45915628189078        3.46022240387734
C           49.91181632777504        0.34747396627209        2.50942586071174
N           47.89723830859452        0.18192202252685        1.45065330176825
C           49.24310799074056        0.17284444819292        1.25286915530969
C           49.89125460287936        0.00830524534165        0.01319148191993
C           49.25059246506807       -0.17330472005883       -1.22818554067795
C           49.92559778802689       -0.32771991618895       -2.48409102026800
C           48.96732503968501       -0.46911844485242       -3.43579377041011
C           47.69756220043570       -0.40419738061813       -2.76793999744522
N           47.90596601822738       -0.22273185261696       -1.42741026254968
C           46.45422183332796       -0.51231362239341       -3.39459969289064
C           46.45748960378848       -0.70188720293064       -4.87540767133382
C           46.40695987785472        0.41152636080622       -5.71921216126576
C           46.34900418846380        1.79642629907728       -5.13133932556551
C           46.40959366479649        0.22646198936163       -7.09650196674569
C           46.46060598802399       -1.05095212287328       -7.64573659537156
C           46.48147280578506       -1.23439338076267       -9.13940459888735
C           46.51173951820709       -2.15157661366213       -6.79712137766630
C           46.51032547145029       -1.98921308361571       -5.41635704066086
C           46.56368374752993       -3.18511973565021       -4.50324215871821
C           45.20833589532947       -0.45353367423858       -2.76638036179592
C           43.94195192624064       -0.57290250512750       -3.43313278797695
C           42.97888800132130       -0.45506684472215       -2.48308478144528
C           43.64734535687843       -0.26227603286336       -1.22901051504346
N           44.99312843865413       -0.26849349012370       -1.42729652422312
H           41.89309124051171        0.30142491069850        2.62752195720679
H           43.78936588901520        0.57430340218187        4.51305724952544
H           47.33692540583242        3.08421369303325        3.88859874418949
H           46.44878085452176        4.02847446281257        5.09763522927557
H           45.57296070512959        3.08803522661115        3.87635883081385
H           46.44509027305698        3.06791749996188        7.23912643484104
H           47.46949991840307        1.05759334844317        9.53675631941562
H           45.83948974373330        0.38718472852465        9.65278936587006
H           46.06958916438182        2.13314483661625        9.43902902272973
H           46.41458072424067       -1.17834030158929        7.77484856256409
H           45.53004861351952       -2.02563641609118        4.53115748768836
H           47.29404637580502       -2.03433306332459        4.52455973149764
H           46.41410842838511       -2.64086717382273        5.93901698709858
H           49.07618840946146        0.59877614551234        4.52193034741869
H           50.98210682107815        0.37811387569256        2.63867575254872
H           50.99636961908655       -0.32493169385314       -2.61288971371318
H           49.10011755335958       -0.60486382985299       -4.49736060843732
H           45.45322987161629        1.90971928380763       -4.51756037412129
H           46.33273793048078        2.55258714739560       -5.91569592735253
H           47.21590649503774        1.97316066538906       -4.49178338423815
H           46.36959444188436        1.09085045247409       -7.75137311774225
H           46.11194139159497       -2.22202823071531       -9.41590556484116
H           47.50379773450030       -1.13628381854946       -9.51206568184037
H           45.86891091476105       -0.47793349050267       -9.63102301980139
H           46.55146910044012       -3.15170439484545       -7.21634886528259
H           46.58460602143392       -4.11206682294148       -5.07559341025810
H           45.69248793888187       -3.19870202193178       -3.84548703274102
H           47.45534510605845       -3.14175940747191       -3.87474523311560
H           43.81479333963272       -0.72751639368892       -4.49279566660253
H           41.90873810024910       -0.49301408821106       -2.61151359440547
