258
 energy: -492.919832496481 gnorm: 0.000968580242 xtb: 6.5.1 (b24c23e)
Co          54.07912255794950       -0.01501297172717        0.00734593170841
C           50.71024000042180       -0.00918701004399        0.02778029523168
C           51.37261796585164       -0.33162302583559        1.19290147694997
C           50.71618954753371       -0.67197132559238        2.41860361371761
C           51.67433148135765       -0.71729100226233        3.37338929594933
C           52.91772067458140       -0.40533749165430        2.73018591697179
N           52.72724459209260       -0.22269481541414        1.38376068637390
C           54.09736052719168       -0.12830482975104        3.40717818362316
C           55.26617524646997        0.20765936013563        2.74015117129494
C           56.50815367546829        0.50417016642617        3.38895718855811
C           57.45440294891562        0.55309686367866        2.42104592138589
N           55.44689496799701        0.12147705699684        1.37871117272064
C           56.79196731056045        0.27642525744792        1.18551555223965
C           57.46575876156491        0.01398967227482       -0.00834840026772
C           56.78384207144413       -0.26221798049575       -1.19433702098730
C           57.43140825093945       -0.57621602667293       -2.42849477051651
C           56.47310495941647       -0.55628112850124       -3.38633335422917
C           55.24371391243806       -0.21880635960078       -2.73402354806532
C           54.06048856543919        0.07629440925250       -3.39643318462752
C           54.05541973594074        0.12223357238794       -4.87507999747821
C           53.20382495502002       -0.70841234253852       -5.60864105160845
C           53.20059270946967       -0.65907425056461       -6.99035487095869
C           54.04441791442596        0.22534210538362       -7.66507669881444
C           54.00017992297718        0.24663817533303       -9.14676463347964
O           54.84607384035641        1.13139638713217       -9.69634091057123
O           53.28267335820359       -0.45207900628095       -9.81630136343593
C           54.89605602492600        1.05728492744551       -6.93756987482919
C           54.90178382160509        1.00217726042527       -5.55495598181705
C           52.88278897309910        0.33442823617874       -2.70732081637845
C           51.64180683939234        0.69439889862887       -3.32909789661254
C           50.69568589920652        0.66516590592792       -2.36120087480285
C           51.36068871116741        0.30076605548759       -1.14718241562631
N           52.71046511316757        0.16622517684976       -1.35706528635720
N           55.43666717996894       -0.11117561484106       -1.37656022215901
C           54.10694867502770       -0.19042689838393        4.88788752711686
C           53.92266840993690       -1.41135695809644        5.54087317236050
C           53.93767423663023       -1.47160384874423        6.92227823253481
C           54.13297942561196       -0.31196605192469        7.67476962127495
C           54.14127924019365       -0.42784176021199        9.15291948817554
O           54.34961373249975        0.73864876815543        9.78191041192378
O           53.97983607384995       -1.45873310110338        9.75506640789058
C           54.31324346900930        0.91005968258748        7.02629856404907
C           54.30164476517919        0.96773337087935        5.64336722162077
H           49.62681061991130        0.00078397815752        0.03601714543906
H           49.65457331397113       -0.83279560155988        2.51824296775046
H           51.56011654457134       -0.91774399971559        4.42630291373550
H           56.63333813979111        0.63372180666348        4.45153649400450
H           58.51245252231574        0.73445692018592        2.52056868232695
H           58.48594248538588       -0.77471383249767       -2.53277824776670
H           56.57805400098756       -0.74962463292106       -4.44147528147473
H           52.55684219413445       -1.40480329061181       -5.08746470195017
H           52.54592982484083       -1.30426313362614       -7.56591431949076
H           54.75548010455424        1.08409315767171      -10.66192818244710
H           55.55060055885446        1.74727550474313       -7.45682052168519
H           55.55390139047221        1.65835323799354       -4.98959250002987
H           51.52343167296276        0.93329030180058       -4.37354589490928
H           49.63854167503262        0.86147678590010       -2.44315709069721
H           53.78313768696862       -2.31414738683009        4.95727080811907
H           53.80073010425861       -2.41631843937259        7.43691442830892
H           54.34119592650831        0.57708653481404       10.73935285398143
H           54.46078218051576        1.81299526014155        7.60688969042045
H           54.42970336804798        1.91890819131340        5.13919550250682
Co          94.20606454192327       -0.00412534225605       -0.04670767219663
C           97.57466046619125        0.00631422586270       -0.07547587262464
C           96.90949296585873       -0.17653064601340       -1.26905318376147
C           97.56284887933813       -0.36811944364448       -2.52820944015065
C           96.60190273766280       -0.30129384130457       -3.47899946046501
C           95.36018138248208       -0.06949563613664       -2.79974245583995
N           95.55426458004924       -0.04770534011008       -1.44189515770149
C           94.17822954349404        0.28532443602812       -3.43581344388629
C           93.01141218937023        0.54014666889892       -2.73064153115545
C           91.76792789456354        0.91283081174696       -3.33583149602517
C           90.82470213473732        0.84784796051306       -2.36579581624009
N           92.83425497140576        0.29236004647430       -1.38856633534887
C           91.49060486602568        0.42539674537629       -1.17417258104023
C           90.81950878134423        0.02116356605169       -0.01804201550189
C           91.50521946681661       -0.39742501878726        1.12403825786856
C           90.86105371615545       -0.85883219277885        2.31282697714616
C           91.82210824238309       -0.95436317489541        3.26339115298915
C           93.04944995201680       -0.53939947416433        2.65316962394628
C           94.23396390928316       -0.32349724824102        3.34294457338692
C           94.24277700702075       -0.45375236260282        4.81649148319641
C           95.09773059433337       -1.36379393980145        5.44428513629761
C           95.10438873731795       -1.47852888675652        6.82211892980001
C           94.26086096127129       -0.68193745374809        7.59885211421502
C           94.30886335549449       -0.83650375668572        9.07268892839477
O           93.46542168302332       -0.02248425332201        9.72522212272548
O           95.02820930590916       -1.60955350711950        9.65252363115415
C           93.40590778282356        0.22864897613982        6.97719112639488
C           93.39657438815472        0.33768800143350        5.59778914683346
C           95.40961933729832        0.01781295894381        2.68662991568211
C           96.65163920411754        0.30348136228979        3.34386744382011
C           97.59516957848091        0.39167614773752        2.37694672392385
C           96.92727599867743        0.17330700250458        1.12990213043275
N           95.57843764197352        0.01152737828300        1.32578597191619
N           92.85239515554113       -0.26896999251804        1.31898424623538
C           94.16484963879617        0.39939846630281       -4.91332094442591
C           94.34794160125068       -0.73535329612639       -5.70696344444721
C           94.32948284899489       -0.63132151302952       -7.08570830714060
C           94.13191844045534        0.60927819604092       -7.69484144430638
C           94.11902345004724        0.66934067422230       -9.17627409603379
O           93.91380720650979        1.90285489532040       -9.66196753404418
O           94.27617923392951       -0.28335768601458       -9.89675728150767
C           93.95304905878723        1.74567325372919       -6.90555613968873
C           93.96792411455249        1.63889588850876       -5.52558168747482
H           98.65806439941088        0.01898948512876       -0.08540689201376
H           98.62435015829929       -0.51433319694171       -2.64923086710076
H           96.71329711183418       -0.37516146967780       -4.54857144123137
H           91.63960483127417        1.16765843394803       -4.37512108340460
H           89.76667314949934        1.04115662173424       -2.43975420780768
H           89.80684055893983       -1.06895768010565        2.39526756640457
H           91.72028472221950       -1.27392531018753        4.28771065030006
H           95.74450585087554       -1.99221426467484        4.84266738859487
H           95.76153191832312       -2.18616542538922        7.31561121567667
H           93.55849907631611       -0.18304952440182       10.67831463940704
H           92.75156075825862        0.85093315696646        7.57611878610905
H           92.74195195639851        1.05494524098168        5.11565770119365
H           96.77248444449273        0.41640094358313        4.40903216342679
H           98.65220252301583        0.57891162611704        2.47900281672941
H           94.48925005422005       -1.70089563907971       -5.23488585454810
H           94.46527330116989       -1.50827437693831       -7.70909076524641
H           93.92028006122720        1.85630946113194      -10.63183532310563
H           93.80378405443497        2.71101377045384       -7.37457021288748
H           93.84087729962137        2.52346761639079       -4.91183604101551
C           60.09323226543537        0.03024642426736       -0.01761500326919
C           58.87189767600137        0.02167457324794       -0.01460227151378
C           61.44414677109067        0.03499305562727       -0.02140161919726
C           62.66571138749201        0.04025214545785       -0.02165810782918
C           73.47063795052922        0.02534114162709       -0.00088951592381
C           72.24758762683243        0.02419960676801        0.00062739509287
C           74.81829071829502        0.02789345199713       -0.00435466833028
C           76.04132691122126        0.03633971589427       -0.01074557092236
C           86.84317296900338        0.04547767563303        0.00111259014104
C           85.62108913963607        0.05241537183851       -0.00211391923437
C           88.19295578635172        0.03851590847851       -0.00119338678004
C           89.41483066648193        0.02897689311554       -0.00693034853307
Co          67.45778093754943        0.03345328837824        0.00506545688630
C           64.07053199616541        0.03999799744562       -0.02211761376893
C           64.75043142192486       -1.13765854988412       -0.34286144045020
C           64.10372297529499       -2.35770364418035       -0.70840066074623
C           65.05567794925322       -3.32280442174345       -0.68887862266850
C           66.27855580111134       -2.68763115615563       -0.30084430782574
N           66.09260764165786       -1.33251534757088       -0.16860059293976
C           67.44596258432365       -3.36331993764960        0.03342647419087
C           68.62095930894529       -2.68906817647906        0.33620337054117
C           69.84218436672401       -3.32063332007967        0.73587550556094
C           70.80190330458009       -2.36318793897718        0.71487188097391
N           68.81912426364126       -1.34049440102473        0.15098908244493
C           70.16081293623951       -1.15015673181775        0.31793980240640
C           70.84622171084183        0.02594136725711       -0.00332259285318
C           70.16804942964775        1.20410413731824       -0.33178912461309
C           70.81851877949983        2.41354986940161       -0.72498195417668
C           69.86243278447108        3.37365041181065       -0.76391625149242
C           68.63399819932050        2.74819176205262       -0.37600262817921
C           67.45959205191693        3.42953694050634       -0.08791175907641
C           67.45461556478386        4.90730917285940       -0.13990859435720
C           68.34109464902373        5.64923816092671        0.64582443235378
C           68.34034564869434        7.03039623124338        0.58383009419483
C           67.45691867696652        7.69622837049718       -0.26791234217395
C           67.50299488617217        9.17798412834008       -0.30852079577121
O           66.61712495577966        9.71909801036110       -1.15788849990798
O           68.25536294489407        9.85268558435766        0.34708479313951
C           66.56757398609132        6.96069736679584       -1.05183261923503
C           66.56608442729764        5.57859166864270       -0.98434754090885
C           66.28705395236790        2.76126291500176        0.24464425190406
C           65.06663151478828        3.40275267713799        0.62917822895705
C           64.11144708452530        2.44056095965248        0.65642935627004
C           64.75345381244952        1.21660030577356        0.29637014757007
N           66.09502719989604        1.40744830404010        0.11325160806499
N           68.82400053677304        1.39833962414597       -0.18852709634670
C           67.43289451292667       -4.84149163823341        0.07364248521676
C           66.53541845072863       -5.51574126720144        0.90658153515695
C           66.52743977583741       -6.89749475356494        0.95047111236242
C           67.41208584145660       -7.63169248578774        0.15833864497227
C           67.36408518328233       -9.11194425436057        0.23955987934925
O           68.25315696736548       -9.72180304982697       -0.55804934018798
O           66.60813042294714       -9.72918722047418        0.94532913794568
C           68.30709370421404       -6.96385346080587       -0.67782550672721
C           68.31762371419008       -5.58052901467568       -0.71610036366624
H           63.05375390307156       -2.45010522770518       -0.93470216828988
H           64.94896587064298       -4.37194297643235       -0.91143804249324
H           69.94274188916003       -4.36200532625229        0.99485250961447
H           71.85247382084042       -2.45594741236831        0.93839830691439
H           71.87237870142852        2.50219146826133       -0.93408685664257
H           69.97046717297737        4.41354512797424       -1.02562999093304
H           69.01915890326808        5.13505001654650        1.31737436337710
H           69.02356240083977        7.61221788323934        1.19276508718815
H           66.71132146046914       10.68506617161225       -1.12716480670663
H           65.88115456325943        7.47323867337632       -1.71534769525033
H           65.88556107331853        5.00693064118597       -1.60522843961831
H           64.96397910325709        4.45341015110205        0.84673985890692
H           63.06230094770189        2.53755501021728        0.88478781679254
H           65.85732765198989       -4.94736203669607        1.53292107489288
H           65.83821370103195       -7.42680604171891        1.59922744445707
H           68.15937287558633      -10.68189802681264       -0.44677509875888
H           68.99284114714489       -7.52993077757500       -1.29704054011534
H           69.00389727729058       -5.06222825177418       -1.37623529309343
Co          80.83053624481050        0.04827779265456        0.00888324067511
C           77.44256769693686        0.03997014007362       -0.01700061376002
C           78.12618820804465       -1.16070378710642       -0.23444209612643
C           77.48182190503233       -2.40417373664801       -0.51561589821613
C           78.44204689119044       -3.35960112262867       -0.46309402623751
C           79.66641142058843       -2.69548765234664       -0.13101444197426
N           79.47062943001850       -1.33480240072412       -0.07094559877277
C           80.84163898592466       -3.34171384721385        0.22659212280916
C           82.00867821984178       -2.64007516258082        0.50479888206974
C           83.22797386673467       -3.23668057851063        0.95862585988679
C           84.17941059812486       -2.27195024353829        0.90200210497169
N           82.19723649874646       -1.30412366780393        0.24610265828492
C           83.53600020051481       -1.09099694487071        0.42134715084783
C           84.21768411505620        0.05199385116226       -0.00675795866922
C           83.53525373233478        1.19108696441957       -0.44300714381326
C           84.17988012140536        2.37330203731487       -0.91938638436141
C           83.22459940016360        3.33244439755536       -0.99585254666633
C           82.00189304845173        2.73218124035271       -0.55533875360983
C           80.83075958875288        3.43162945816482       -0.29049604102945
C           80.83897601482290        4.90736513658249       -0.38341625460626
C           81.73172045266239        5.65583658398606        0.38914869290214
C           81.73219042867305        7.03622067827451        0.31418634028067
C           80.84470584361189        7.69471986922195       -0.53896780453597
C           80.88372174406709        9.17673914012561       -0.58431822738613
O           79.98457846835043        9.71153821953100       -1.42323231787810
O           81.63709912837369        9.85629396885077        0.06477270613276
C           79.95547618283059        6.95240258209573       -1.31646200418722
C           79.95264689118544        5.57082098728554       -1.23597168885124
C           79.65650820452257        2.78419459091529        0.06985608469026
C           78.43205715532146        3.44548094913625        0.40632798112856
C           77.47610753814392        2.48627589790373        0.47379758961352
C           78.12268018955341        1.24408659297879        0.19337885728522
N           79.46369981513104        1.42371032510653        0.01014450038155
N           82.19177834645740        1.39599528335051       -0.29530183156271
C           80.85535216680488       -4.81777226267574        0.31381206527863
C           79.97143651478655       -5.48861786160908        1.16353553869751
C           79.98651961462177       -6.86923193558110        1.23652839763124
C           80.88160181139594       -7.60545969463395        0.45812335148871
C           80.85430173726522       -9.08453002903843        0.56530338284997
O           81.75203585204883       -9.69554911365068       -0.22175620292695
O           80.10626610232680       -9.70027178129007        1.28109459172256
C           81.76660829681265       -6.94071586117727       -0.39116350454660
C           81.75399938925062       -5.55869975609231       -0.45861275813887
H           76.42895710541298       -2.51631755593513       -0.71834539302711
H           78.33926338071583       -4.41984518584203       -0.62700013885563
H           83.33251352013487       -4.26131935218372        1.27626969737794
H           85.22680826989085       -2.34226904300831        1.14743531471897
H           85.23079191784910        2.44770306731248       -1.14802516140543
H           83.32901969479404        4.35630231519082       -1.31591794047720
H           82.41138099166869        5.14712783167306        1.06327872693880
H           82.41750532799982        7.62309732291687        0.91586678321318
H           80.07045129160232       10.67829659354310       -1.39174869634517
H           79.26807042791761        7.45933411309302       -1.98323641006399
H           79.27059138044974        4.99408641254203       -1.85040972214873
H           78.32666923544276        4.50603691194713        0.56673628868998
H           76.42476583829225        2.59540376454301        0.68599474560111
H           79.28515605410020       -4.91843603480649        1.77920612413672
H           79.30662818155780       -7.39600829518811        1.89710722240218
H           81.67053692337248      -10.65488452074285       -0.09546600959866
H           82.46145253675576       -7.50826265651007       -0.99875992564378
H           82.43205553790617       -5.04294744604192       -1.12914480446030
