132
 energy: -251.162476098466 gnorm: 0.000724729080 xtb: 6.5.1 (b24c23e)
Co          15.18868809204437       -0.10181389052181        0.00894050641941
C           11.81436158218993       -0.18393256739437        0.04803411697202
C           12.49086245025763       -0.45993917835710        1.21646737545146
C           11.84182357766626       -0.77915744466146        2.45170177759327
C           12.80096118291479       -0.77412226473357        3.40630210074365
C           14.03797991669467       -0.46369968467520        2.75070815790709
N           13.84259669420100       -0.31176898094244        1.40183029911278
C           15.22513344620567       -0.19190617366344        3.41759064478186
C           16.39957565770004        0.10298064425015        2.74261602380781
C           17.65446952504848        0.34027753379178        3.39105130508582
C           18.59871059409634        0.35948407912952        2.42060544798011
N           16.57152094847083        0.02578979358837        1.37855342220589
C           17.91964691726310        0.13463087678042        1.18406126087726
C           18.58350585062681       -0.06756738112286       -0.02880645737929
C           17.89074220613116       -0.24625259165032       -1.22870831724980
C           18.53676311695985       -0.46762770873977       -2.48331007184627
C           17.57260945663650       -0.40280277536256       -3.43283222831963
C           16.34097029663514       -0.13671448570639       -2.75291960340322
C           15.14100153923020        0.13289193957556       -3.39461994572893
C           15.12370093626437        0.22436023765523       -4.87167478720443
C           14.32850928301288       -0.64335932853142       -5.62533125838318
C           14.31954180360427       -0.56007111526018       -7.00536812800591
C           15.10091118188177        0.39553325170590       -7.65778606908188
C           15.05540408455660        0.44670653683817       -9.13895680982520
O           15.84212243716003        1.39591091405391       -9.66780173685427
O           14.38473028523467       -0.28277542482133       -9.82407814013250
C           15.89455468747308        1.26581484915332       -6.90987496778385
C           15.90651562141121        1.17701177954862       -5.52890951477686
C           13.95522680594212        0.30203158817443       -2.69274735051693
C           12.69358756515617        0.60364172418661       -3.30390714850909
C           11.75466164774018        0.49749353771586       -2.33484110270429
C           12.44563115572554        0.15026154129742       -1.13045445744711
N           13.79979155767200        0.09368750426246       -1.34581820245137
N           16.54163438972246       -0.09926122314032       -1.39234764173589
C           15.24259899087812       -0.23030978918295        4.89890751594121
C           15.02567155109262       -1.43237852997924        5.57647440547349
C           15.05027936609909       -1.46712240896692        6.95870937429423
C           15.28911920055835       -0.30073708139061        7.68772896263682
C           15.30729739824688       -0.38961020642226        9.16762335843454
O           15.55656262530548        0.78136574378687        9.77286377793567
O           15.11953475131701       -1.40373671728345        9.79014778594347
C           15.50339523655176        0.90246272347717        7.01477426914146
C           15.48152457621669        0.93466188359136        5.63123559702266
H           10.73137292626637       -0.21782333897606        0.06029698535296
H           10.78365070123099       -0.95814610494802        2.55678724735521
H           12.69087321546907       -0.94357290228248        4.46499647719854
H           17.78845716907714        0.44954134775557        4.45474849288877
H           19.66355455648877        0.49635636578812        2.51794407138401
H           19.59403868287155       -0.63962539611917       -2.60472376421378
H           17.67419994327298       -0.52535271250446       -4.49879004069695
H           13.73169943391021       -1.39506254278486       -5.12137236802726
H           13.70959728070472       -1.23436832875735       -7.59653210839968
H           15.75578478645417        1.36358822444481      -10.63441681976296
H           16.50032826335505        2.01087083949116       -7.41198810711817
H           16.51455478042008        1.86051224937879       -4.94701006014255
H           12.55843225290600        0.85805108684432       -4.34260457673834
H           10.68759830871549        0.63423113115127       -2.40890120397468
H           14.85416907820358       -2.34159835221318        5.01169740132463
H           14.88782642107768       -2.39756779998902        7.49163470467763
H           15.55164688203556        0.63828796503880       10.73323751482256
H           15.68641556083614        1.81067446313953        7.57675352603449
H           15.63722168806365        1.87138612638071        5.10811259008948
Co          33.71587556488260       -0.09916851778388       -0.02207640651699
C           37.09007227440744       -0.17713837427452       -0.07003097402886
C           36.41378362642037       -0.31645763745993       -1.26262442857033
C           37.06281379840685       -0.49197000154609       -2.52629924998603
C           36.10371609342899       -0.37725291168323       -3.47405131643400
C           34.86679625681749       -0.14348910315207       -2.78721168843807
N           35.06214132837929       -0.14741657314940       -1.42983751883759
C           33.68000800035775        0.20446603952622       -3.41845663246777
C           32.50590533338050        0.42117416242992       -2.71393072949039
C           31.25131017333739        0.73273387469554       -3.33072313916648
C           30.30687565288272        0.64000894727219       -2.36471317913872
N           32.33366504482671        0.18715041792780       -1.36787454192619
C           30.98559078413461        0.27342037696178       -1.16237868693819
C           30.32114926878959       -0.06753310088459        0.01876630859273
C           31.01334087175941       -0.38342899471980        1.19043030026366
C           30.36686632922183       -0.74733394180002        2.41104172542869
C           31.33072655048128       -0.79229250993991        3.36206569289652
C           32.56271813893468       -0.45053550638739        2.71748618192981
C           33.76291785601475       -0.25786061314389        3.38603059123480
C           33.78043002653612       -0.33765833341995        4.86374452784426
C           34.57550504932797       -1.28697856974300        5.51178038109209
C           34.58483894964415       -1.36387233521504        6.89218553741851
C           33.80385081069993       -0.48999100599117        7.65096076525220
C           33.84905378379470       -0.61117148219452        9.12806485986732
O           33.06172716736997        0.26975061385450        9.76340330737305
O           34.51979852880695       -1.41512701201067        9.72396838456343
C           33.01048309322360        0.46133791489643        7.00895569220606
C           32.99824768134471        0.53295881094998        5.62698172100551
C           34.94896799917475       -0.01002450562119        2.70839354239714
C           36.21074212917597        0.21810630902210        3.35037732748853
C           37.14972230980961        0.22413014819308        2.37560634994454
C           36.45870119457194        0.01882954142866        1.13910908645240
N           35.10449305100485       -0.06141287647143        1.34640570007599
N           32.36244140170256       -0.25664363803012        1.37032835351201
C           33.66259093288214        0.33660362363737       -4.89433117596893
C           33.87889274578389       -0.77971002533321       -5.70563502978159
C           33.85437179017310       -0.65525574368018       -7.08269538170401
C           33.61619491782056        0.58735216638151       -7.67275443444926
C           33.59796191315590        0.66926014857967       -9.15304527764965
O           33.35023479200025        1.90237011733551       -9.61960208468947
O           33.78478129538847       -0.26674521843561       -9.88807884338779
C           33.40248561985570        1.70529596799562       -6.86591818116171
C           33.42428614833184        1.57817450445336       -5.48785113228387
H           38.17306000194392       -0.20961566485611       -0.08592047274894
H           38.12093866176362       -0.65803009327764       -2.65122947913219
H           36.21382369057273       -0.42431182539385       -4.54518233242293
H           31.11755375291403        0.96443099444067       -4.37463950384338
H           29.24212794726935        0.78781141384524       -2.44565756859938
H           29.30947648677256       -0.93168123172043        2.51164035008939
H           31.22877292204745       -1.03628197134841        4.40689728766074
H           35.17188297402420       -1.97560296799387        4.92411866660897
H           35.19475398458185       -2.10219297483643        7.40117330005813
H           33.14760681264557        0.12510729077357       10.71972957530239
H           32.40513872246835        1.14357820148712        7.59402111827718
H           32.39046974197436        1.27952739420162        5.12825040373069
H           36.34598606794905        0.35070752612395        4.41150931473854
H           38.21686378150601        0.35069683784156        2.46500020604183
H           34.04980376320980       -1.74795932725582       -5.24918123455752
H           34.01634031292419       -1.51833453691466       -7.71908600931602
H           33.35510834332933        1.87063236351973      -10.59006809820914
H           33.21986547496068        2.67219538460377       -7.31970475961486
H           33.26905758481035        2.44861824460759       -4.86048631932768
C           19.98596137837984       -0.08203516465056       -0.04067211568530
C           21.21106694974817       -0.09181486646388       -0.03934723907740
C           22.55266348079924       -0.10159088847088       -0.03529172540525
C           23.78402734882130       -0.10644935145046       -0.01821470193933
C           25.12070849014886       -0.10555025667702       -0.00431221801236
C           26.35215906298075       -0.10280418782069        0.01296206817999
C           27.69369636009766       -0.09358071074186        0.02084947427163
C           28.91883950166588       -0.08468483588390        0.02697020068446
