254
 energy: -445.122198309748 gnorm: 0.000884690097 xtb: 6.5.1 (b24c23e)
C           45.35451167750899       -0.09003270200532       -0.09537226003047
C           45.97366542796848       -1.29892071125123       -0.38509998035961
C           45.33189986513588       -2.52516521635437       -0.71740020963825
C           46.30024539040547       -3.47141080258265       -0.90034213950358
C           47.56508566603591       -2.85574040048004       -0.67582294442096
N           47.31772379929181       -1.54518209390945       -0.38223850174224
C           48.83251628162051       -3.44490802914830       -0.75254456406001
C           48.87655582246270       -4.89544756288321       -1.04920421500883
C           49.54089568181560       -5.36557903604985       -2.18659529076355
C           49.57897233825235       -6.71829263036565       -2.46382927146531
C           48.95782331870826       -7.63422925818118       -1.60813421772862
C           49.01545286123010       -9.07309649776281       -1.92387360863576
O           49.57300630868336       -9.52415347632067       -2.89149675461751
C           48.29533393239751       -7.16654291625251       -0.47064978512051
C           48.25303115437028       -5.81115812252970       -0.19652736377100
C           50.04248623879571       -2.76848331976259       -0.57177790962060
C           51.34391319036028       -3.41280124523244       -0.58959786202267
C           52.25548881464712       -2.43768147640392       -0.39561770355263
N           50.18416781378980       -1.43490259047506       -0.34333215844865
C           51.50973240200632       -1.20246303863938       -0.24814857928044
C           52.13435003495826        0.04553542655221       -0.05842117093975
C           51.48962091901862        1.27820275544470        0.15056087743064
C           52.12422158608040        2.53555163712634        0.33431374231530
C           51.15173963601183        3.47082723431793        0.55491603942976
C           49.89208721617504        2.81036343318049        0.51907566644522
N           50.14737775110041        1.49073316711063        0.25816498002576
C           48.62593762861332        3.38245017608484        0.68754450971251
C           48.58567495806768        4.82446978246724        1.02074655991037
C           49.21053606800133        5.29901796051566        2.17879971426475
C           49.17001057210530        6.64326502851240        2.49381598389613
C           48.50842503073336        7.54697850968416        1.65563880723367
C           48.48236898829602        8.97706887829547        2.01238641107692
O           49.01234132413730        9.43148968825101        2.99402251780514
C           47.88655744714372        7.07532441602402        0.49694092333266
C           47.92337639603505        5.72814069033372        0.18458322308924
C           47.41449172591196        2.69229371510219        0.56666297317212
C           46.10514205124322        3.28610954434261        0.79041665210655
C           45.20063328894832        2.31315454675729        0.56169961707739
C           45.95639431692443        1.12203441723787        0.21541602187143
N           47.28617601482331        1.38498515064502        0.23985251271294
H           44.26937440838357       -0.10540826468092       -0.10943096247099
H           44.26487635513649       -2.65190654409883       -0.80715993222906
H           46.15725681659961       -4.50355406769980       -1.17622923839154
H           48.03788851144861       -0.85674617011643       -0.19077587951459
H           50.01169072983578       -4.65748992667097       -2.85907981914708
H           50.08761632338296       -7.08992042821665       -3.34689577280602
H           48.49613046001225       -9.72255499394245       -1.18715870817428
H           47.81453143032244       -7.87026472861589        0.20110878921912
H           47.75116256639394       -5.45360793937472        0.69563808366952
H           51.51475516679073       -4.46924886695585       -0.71826204904789
H           53.32918946723391       -2.52107367427288       -0.34388350319427
H           53.18986935226532        2.69437317400782        0.29762555500334
H           51.29090724894656        4.52714309007965        0.71722753967770
H           49.43034309160997        0.77948318398549        0.16004034671895
H           49.71100576936755        4.59964116116559        2.83907985167733
H           49.64634204005083        7.01721983031729        3.39377845815868
H           47.92785078557160        9.61659416394844        1.29294771139083
H           47.37521506121806        7.77011023442320       -0.16138639586066
H           47.45293763635826        5.36816969216890       -0.72341771382777
H           45.92728044191239        4.30516688802574        1.09394816850016
H           44.12493662588773        2.36253834374383        0.62456810636917
C           92.44758346528425        0.10262604596884       -0.05767328373414
C           91.82751456902116        1.26925140840140        0.37029906017320
C           92.46791327338717        2.48138990409180        0.75315949288530
C           91.49911971959639        3.37182877796269        1.12063484900617
C           90.23540950097127        2.72905674615284        0.98223070147654
N           90.48390525773013        1.46897878527259        0.51815397229801
C           88.96770859331872        3.26623408606720        1.23394161363679
C           88.92368826474049        4.64889745325092        1.76420834276716
C           88.26870900409526        5.66079066075902        1.05521651105515
C           88.22836887699796        6.94856728918958        1.55360152916715
C           88.83808311978287        7.25469090597283        2.77486400791060
C           88.77661949319864        8.63517219238899        3.28846081973991
O           88.22460820561480        9.53896223090430        2.71484590106412
C           89.49272809477473        6.24496790012983        3.48436578046577
C           89.53726960235170        4.95671700759352        2.98202077908002
C           87.75800733230867        2.59752762876130        1.02556382866858
C           86.45576110789365        3.15697244795282        1.34261996685984
C           85.54536328673976        2.22174587006559        1.00267537103961
N           87.61776257522507        1.33940218207004        0.52741162105592
C           86.29259519556790        1.08804208873930        0.49238502502591
C           85.66925919200438       -0.09180490527349        0.04261784970295
C           86.31334152397419       -1.25719151536651       -0.40994714356667
C           85.67729485466660       -2.43678272244227       -0.88114878119849
C           86.65078675272639       -3.33291505525757       -1.22449054248881
C           87.91325061699030       -2.73012476910342       -0.96458500956895
N           87.65732460156362       -1.47499145494280       -0.48067356108189
C           89.18102537246016       -3.27855415594907       -1.18853835381003
C           89.22695491963729       -4.66695911113376       -1.70136764995987
C           88.66165107781893       -5.71427305099512       -0.96673175256988
C           88.70772670462284       -7.00868583001606       -1.44701478485994
C           89.31545098301548       -7.28670445131004       -2.67594067952598
C           89.34843853861497       -8.67577270102588       -3.16830753606255
O           88.86862716146396       -9.60772778116562       -2.57493132791247
C           89.87858694057574       -6.24139825820823       -3.41215543512103
C           89.83626905091860       -4.94614068367089       -2.92837172248424
C           90.39167713374179       -2.61226543081039       -0.96649554304202
C           91.70390092570953       -3.21333826081933       -1.15095190091105
C           92.60669366704829       -2.26294972037278       -0.83677725619128
C           91.84769454984232       -1.08695043683530       -0.44847380991917
N           90.51763410797176       -1.33724799418522       -0.53014172666286
H           93.53226774476497        0.13174150779382       -0.08196663211460
H           93.53432871469050        2.64021756609420        0.73896322768701
H           91.64072602984278        4.38867464555744        1.44907860162830
H           89.76454924472661        0.78434352927816        0.31055925644206
H           87.80647853114330        5.43001809292300        0.10215536957622
H           87.72623144770729        7.73979056593240        1.00729912357668
H           89.28738027864935        8.78147977381169        4.26415897140966
H           89.96520709655296        6.47256777824054        4.43443330063873
H           90.03291796676393        4.17241406092253        3.54317307749385
H           86.28332606658570        4.12746088192571        1.77871051029686
H           84.47159768630824        2.26551221129782        1.08947243981202
H           84.60982148692139       -2.57007067696694       -0.95115108401552
H           86.50995724492388       -4.32018862861136       -1.63306961222873
H           88.37529443996667       -0.80472645633813       -0.22579000128595
H           88.20365001938573       -5.50552611269354       -0.00642730985769
H           88.27737187637284       -7.82696676234289       -0.87967486021603
H           89.85798812602002       -8.80038745184093       -4.14756329014601
H           90.34814900963994       -6.44733845425649       -4.36856637195215
H           90.26089306393294       -4.13526879375826       -3.50939274376212
H           91.88496437468804       -4.22916122214228       -1.46332403062044
H           93.68356349244803       -2.32438297072297       -0.84697082999093
C           54.76368381937169        0.09619481734225       -0.08449307608422
C           53.54248439369967        0.07550725632973       -0.07015781735849
C           56.11463524587451        0.11157124956694       -0.08809773895470
C           57.33613919193001        0.11501408303382       -0.08947775128188
C           68.22516982575634       -0.02252186313182       -0.04132586144337
C           67.00284061438627       -0.00155089763242       -0.05445685930980
C           69.57374736095316       -0.03503407866366       -0.03281079111046
C           70.79615229656929       -0.05302816261115       -0.02038198934029
C           81.68730589247666       -0.14051274094203        0.03093686909092
C           80.46602893148740       -0.13321731536240        0.02410669049641
C           83.03898737113683       -0.13389308539254        0.03609856265104
C           84.26012208946203       -0.12022787879444        0.04269000279691
C           58.74374090523126        0.10532915412471       -0.08467327511363
C           59.38104694089424        1.05535388409962       -0.90380178571624
C           58.74326213358871        1.99644246286372       -1.75329996448254
C           59.71671718991441        2.72765939814915       -2.37697610137187
C           60.97836179566401        2.25987170768105       -1.91766563584072
N           60.72472352321155        1.24498834203082       -1.03494834006271
C           62.24504770123720        2.71489555632255       -2.30475719353138
C           62.27558175111827        3.84085476039335       -3.26876706845361
C           62.86592202659938        3.67759905083774       -4.52579136864016
C           62.89131512242601        4.72503258378687       -5.42611760498575
C           62.33265908936917        5.96223852272146       -5.08849152485176
C           62.37535456889082        7.06562188246514       -6.06566509531207
O           62.86494980666466        6.96968929662193       -7.16173377412527
C           61.74538103262211        6.12757809581142       -3.83189883617447
C           61.71427546809173        5.07603429069056       -2.93316719641930
C           63.46408254794234        2.19803262330192       -1.86183630895173
C           64.75769656014793        2.73919445080166       -2.23961076870145
C           65.68463696895220        1.98694104981635       -1.61149648122621
N           63.62653738854195        1.15101220244663       -1.00707107397219
C           64.95602065219299        0.99475648902340       -0.84565521611595
C           65.59816888972166        0.01776736733729       -0.05849489561144
C           64.95866047914569       -0.95253305639656        0.73696669800302
C           65.59546434507567       -1.95492263235467        1.51352612831296
C           64.62190548711916       -2.68228044837928        2.14164586220448
C           63.36158561068448       -2.13803101232627        1.77221288404112
N           63.61580620668712       -1.10114782065622        0.91530545463207
C           62.09547218587787       -2.58250518483937        2.17245551595994
C           62.06664803503487       -3.70908647548349        3.13535938475113
C           61.45783879832091       -4.91877611685377        2.78973913296106
C           61.43111489924730       -5.97149517735112        3.68701693809878
C           62.00915443542969       -5.83364106145182        4.95124591104197
C           61.99224283189061       -6.93903904991185        5.92694547992177
O           62.47735209206003       -6.86757536796642        7.02708021566761
C           62.61646177856085       -4.62235132110052        5.29844838323201
C           62.64772317587925       -3.57341249995851        4.39998149598983
C           60.87637409371195       -2.05271443919631        1.74449945023913
C           59.58306743771966       -2.50664631958471        2.22478477699680
C           58.65637405038211       -1.75996075188453        1.59016220528554
C           59.38483939591034       -0.84425546594676        0.73394893805296
N           60.71469945332362       -1.03747416930796        0.85315259807439
H           57.67582222929183        2.08967913154180       -1.87164213273660
H           59.57507288464565        3.51459188404989       -3.09959242159081
H           61.43992706967790        0.70606986525266       -0.55813875533360
H           63.28937878822126        2.71645899381910       -4.79439931668867
H           63.34190071956699        4.60457671597140       -6.40544089576544
H           61.91279823357763        8.00997729206999       -5.70749919756709
H           61.31368947415179        7.08536618792202       -3.56005112524799
H           61.26954555129561        5.21191436360217       -1.95369848724221
H           64.91343833445305        3.58817020965127       -2.88517760830320
H           66.75857133076015        2.07840315412310       -1.64048076831195
H           66.66220721491824       -2.09797307560234        1.57387393574539
H           64.76246413256966       -3.52771041488808        2.79501896205105
H           62.90127675154289       -0.53182907565394        0.47414893337084
H           61.01984379190031       -5.03285820483586        1.80459685185637
H           60.96173025548557       -6.90926021993000        3.40803545255445
H           61.48933053734891       -7.86043815272623        5.56332696628432
H           63.05837069505462       -4.52247138280299        6.28403213514418
H           63.10658070479626       -2.63114634571587        4.67764119813996
H           59.42697635437487       -3.28063909829307        2.95849733924757
H           57.58285356119912       -1.79833215440929        1.68231861144611
C           72.20083816301512       -0.06231702648108       -0.00920802933519
C           72.83739966784796        0.87158512083889       -0.84932183912450
C           72.19798289546787        1.79239831247359       -1.71922609860665
C           73.16948924074681        2.52843591256376       -2.34030864368191
C           74.43121759248366        2.08342633490818       -1.85922422195337
N           74.17965812013601        1.07435682750417       -0.96878232162519
C           75.69564262334704        2.55791601249346       -2.22837808242092
C           75.72250358095390        3.68320875165252       -3.19289010581165
C           76.33873060938558        3.53002666641799       -4.43869349145328
C           76.35944578882436        4.57663006456000       -5.34009105604091
C           75.77036499060996        5.80288349531162       -5.01457556161932
C           75.80830462280247        6.90529938765948       -5.99323285356152
O           76.31964474713149        6.81720730505036       -7.07995093439933
C           75.15770441534849        5.95838434517382       -3.76891643450389
C           75.13115771239221        4.90754274740897       -2.86924301349284
C           76.91639174433612        2.06023213287688       -1.76700180622088
C           78.20660696458164        2.62476205393689       -2.12256055569339
C           79.13671430827434        1.87869249550345       -1.49221154126201
N           77.08261312736843        1.00840022225664       -0.92080303845812
C           78.41352584556793        0.86668426704073       -0.74721732365936
C           79.05767859594734       -0.12226814015365        0.01977776955385
C           78.42221306440190       -1.10876431178909        0.79582356138470
C           79.06107701995424       -2.12065172365966        1.55883345098505
C           78.08983544077891       -2.84588835386183        2.19254416467073
C           76.82871822181438       -2.29139630672474        1.84041103537501
N           77.07968204141824       -1.25333831969697        0.98473178300018
C           75.56476876657497       -2.72358369613869        2.26179997268205
C           75.54352474541405       -3.84220936955139        3.23419994023157
C           74.91911150287982       -5.04990544162191        2.91033231621290
C           74.90325430185048       -6.09568796760637        3.81601368820021
C           75.50833679882729       -5.95277112880107        5.06694319190924
C           75.50621593128378       -7.05149737472035        6.05040300213333
O           76.02024823623937       -6.97691367929716        7.13699175900671
C           76.13040780082835       -4.74310185528092        5.39282552165414
C           76.15030574303367       -3.70104342791424        4.48613356783642
C           74.34377684118536       -2.18820564063387        1.84748666232715
C           73.05386468163287       -2.62681540674578        2.35032546258310
C           72.12352747087978       -1.88645669788127        1.71300223652201
C           72.84681482660926       -0.98981361537259        0.83285868760864
N           74.17624018248038       -1.18533068722807        0.94221667268166
H           71.13099264187127        1.87144724028573       -1.85098900259129
H           73.02660307519378        3.30452020659501       -3.07428266686471
H           74.89536888841462        0.55113260733969       -0.47558397571629
H           76.78570981635629        2.57702796003283       -4.69804213627044
H           76.82964550873052        4.46391569583339       -6.31107426483392
H           75.32064295455639        7.84079720832907       -5.64533280727909
H           74.70247069581822        6.90778624777553       -3.50628690792349
H           74.66641174555714        5.03576014435280       -1.89806134861446
H           78.35745378517828        3.48349087613563       -2.75624696700824
H           80.20943985906111        1.98560036890980       -1.50749923281539
H           80.12763202354773       -2.26936792947477        1.60784613485584
H           78.23223862645787       -3.69578973365327        2.83969500075733
H           76.36448605947562       -0.67579743567647        0.55558527550356
H           74.46144832909584       -5.16859005935801        1.93469870766105
H           74.42257921668802       -7.03245516932356        3.55333283051896
H           74.98588748456206       -7.97064909890076        5.70635781959680
H           76.59265812876764       -4.63892428157531        6.36861291204949
H           76.62077970469336       -2.75982783459238        4.74752735120751
H           72.90263486055154       -3.38747816298909        3.09888931188590
H           71.05078973355408       -1.91757258651617        1.81720839898015
