201
 energy: -382.942384049108 gnorm: 0.000716370826 xtb: 6.5.1 (b24c23e)
Fe          28.01619041289561        0.16288766267009       -1.52220996380361
C           24.67664729934320       -0.29516250379102       -1.18570360782143
C           25.13842327894783        0.99681196785792       -1.32819518305237
C           24.28532814229152        2.14620102954094       -1.37443213211621
C           25.09529627305830        3.22887449307662       -1.43559099124624
C           26.44403779410764        2.73980393935208       -1.40662751803889
N           26.45543677768658        1.37111440761601       -1.38558516296616
C           27.56718601181155        3.55550560184727       -1.33630230316645
C           27.37760793402909        5.02434740737929       -1.25939675789892
C           26.69939145242522        5.59543881140395       -0.18657520305925
C           26.53183565938814        6.97769100921196       -0.11156778855342
C           25.80756653715646        7.52802938660580        1.06157780156541
O           25.71524322027156        8.86605644883222        1.05522416208534
O           25.33889831172980        6.85942055126636        1.94691697701281
C           27.03944877009169        7.79918975483758       -1.11808530077102
C           27.71242640775000        7.23217829889223       -2.18891754207473
C           27.88432090714622        5.85691867995276       -2.25985502056018
C           28.86079204590036        3.05484549032628       -1.30815909680076
C           30.02968801527880        3.86600507142314       -1.13560475533359
C           31.09704737481623        3.03619410269475       -1.21654835189089
N           29.21465185201292        1.73597127137950       -1.46161254515123
C           30.57847963811418        1.72252753384096       -1.44106377270377
C           31.38895184983236        0.60967153753135       -1.68881830148973
C           30.87265329250653       -0.66784833706981       -1.93174511746432
C           31.68511966681591       -1.78779749218313       -2.29132838645956
C           30.85885833656936       -2.85876788545884       -2.36564225044556
C           29.54645192851385       -2.39297231313827       -2.02615401550667
N           29.56504637717081       -1.03494641766790       -1.81113176241245
C           28.44578684681656       -3.22096028399054       -1.85986697342340
C           28.62243598026244       -4.68475517133051       -2.01595097071927
C           29.50157743958394       -5.38691503910300       -1.18853064943590
C           29.66199543696300       -6.75846879702220       -1.32929151007520
C           28.94841863996720       -7.44565117593872       -2.29681797980803
C           28.06583649579732       -6.75539763632643       -3.12923200901050
C           27.31606063709308       -7.52840980374579       -4.15082779604396
O           26.48552418039915       -6.77832893764135       -4.88954171633551
O           27.42428436638621       -8.71634705232514       -4.31839321635472
C           27.90393963964568       -5.37880482977866       -2.98730738845865
C           27.18298447586701       -2.73903814110332       -1.53171790199835
C           26.04758191225555       -3.57509788465215       -1.26571199033394
C           24.99268417270320       -2.75089722411479       -1.06485729736413
C           25.48422973694305       -1.41321639610269       -1.20453991672452
N           26.83256525002194       -1.41873888506644       -1.45151943525311
H           23.60930515809625       -0.44228796418921       -1.06547573519714
H           23.20764591260104        2.10857207021459       -1.36299037053107
H           24.81757842402808        4.26879814906896       -1.49346526435692
H           26.30891869543159        4.97311923591756        0.61119344296212
H           25.23237547587260        9.14489673744200        1.85017121658096
H           26.90635143175196        8.87262401020151       -1.05922610589395
H           28.10727973011063        7.86475166421691       -2.97589233657184
H           28.40490838929289        5.41858466720354       -3.10395196416002
H           30.02328128053305        4.93014094271388       -0.96416497445826
H           32.14498999104272        3.27759061485712       -1.14002564067203
H           32.74776522925889       -1.74256203369639       -2.46809669960108
H           31.10638096814541       -3.87487981377115       -2.62645408731660
H           30.04956952894517       -4.85360964260301       -0.41980892736163
H           30.34541426221426       -7.29051256723333       -0.67731424943540
H           29.06099289058819       -8.51692642239342       -2.41964084544460
H           26.03589331721609       -7.35465276369310       -5.52864871407084
H           27.22743251928146       -4.84325904570847       -3.64279724320645
H           26.06899433125600       -4.65230579496520       -1.23192172137333
H           23.96816800248061       -3.00630242211324       -0.84552456430323
Fe          62.59478796313156        0.26843415040231       -1.30631776734817
C           65.94520892254202        0.18405409198349       -0.81286071869365
C           65.34215703983611       -0.93772653935910       -1.34278291732485
C           66.05546674990079       -2.11917499876759       -1.72477832962529
C           65.12616032073585       -3.03122973888611       -2.09456680235087
C           63.84391588423523       -2.41037491659957       -1.92230372059170
N           63.99307106533457       -1.11481072226949       -1.50729625829397
C           62.62965900292141       -3.06751334065400       -2.09071303768797
C           62.64574739323915       -4.51213003721863       -2.42174161197004
C           63.24519155239253       -5.42723955136581       -1.56070398190215
C           63.26038923439014       -6.78625881459866       -1.87168004477085
C           63.91810736614237       -7.71103755031824       -0.91460948714904
O           63.87438893974468       -8.99643260368867       -1.29487225086379
O           64.44908376413672       -7.36537788294095        0.10963686487221
C           62.67299313943553       -7.23986886144630       -3.05272270884442
C           62.07602697242411       -6.33077395237792       -3.91195496775716
C           62.06051630021721       -4.97827482881563       -3.60147462679360
C           61.40418039458545       -2.43200955182469       -1.94875051170004
C           60.13823494088602       -3.09682604388446       -2.04634425425194
C           59.18497435060803       -2.13941157095265       -1.94707148081936
N           61.21949965316822       -1.08511675644997       -1.74570242036182
C           59.86978339202785       -0.89546450152213       -1.78174896061202
C           59.21613253143276        0.34171419825218       -1.74292694414179
C           59.89307988245080        1.55337297719304       -1.55750541206562
C           59.24334409804339        2.82660895779627       -1.57757080234163
C           60.18349538983323        3.74703823276170       -1.25464638140483
C           61.40236815359711        3.02940584712329       -1.02391079558214
N           61.21645007550066        1.68771193665678       -1.25977850324368
C           62.57237505631095        3.61349414306684       -0.56093429744931
C           62.56401642249725        5.06097785098981       -0.23894332919636
C           61.72337139315569        5.55922984021581        0.75876013542322
C           61.71357799482112        6.91330288173830        1.06362273030057
C           62.53863373420624        7.78617491369375        0.37443672872733
C           63.38293252805528        7.30017502143935       -0.62514655243674
C           64.25064320503218        8.26825293774009       -1.34163629995008
O           65.03546348768778        7.70172602807023       -2.26970730840237
O           64.26729004347440        9.45341080848067       -1.12744119869106
C           63.39619419742557        5.94020517835987       -0.92828477533773
C           63.75163111242772        2.89917687904709       -0.37910159664752
C           64.95978896997946        3.46276711904600        0.15123520918507
C           65.90556867791918        2.49661342354473        0.08193139309607
C           65.27291008800400        1.34244083444112       -0.48220410751191
N           63.94662271667811        1.58929448567108       -0.72353597959344
H           67.01670408366711        0.15515922718615       -0.65036376715396
H           67.12907849899597       -2.21855615935575       -1.70546805603042
H           65.28273186261865       -4.03515761481494       -2.45432242292942
H           63.69375721523942       -5.09479078282280       -0.63092884784678
H           64.32438475789449       -9.53173683769954       -0.62118728245211
H           62.68663930264390       -8.29597656028659       -3.29329872372536
H           61.62023729458890       -6.67602124950775       -4.83307578516463
H           61.60419562596378       -4.27119770241603       -4.28518417060733
H           60.00530550726577       -4.15967826309759       -2.16639744076256
H           58.11308161815410       -2.24960053276485       -1.98262058532386
H           58.20236914046157        2.98055977014352       -1.81214808806001
H           60.07219692419254        4.81650559214428       -1.17973542146665
H           61.08505221703751        4.87534662491504        1.30692600102861
H           61.05893020320562        7.28518060808291        1.84355410204323
H           62.54219140178383        8.84694193803185        0.59838451412419
H           65.56694048487327        8.39732179920993       -2.68980755285030
H           64.04367247025883        5.56683589699786       -1.71280658312448
H           65.05770201051811        4.46791310994169        0.52820148508520
H           66.94149566506509        2.54291579071260        0.37803557984340
C           32.78057243041946        0.78312238711718       -1.67978207777189
C           33.99412272558764        0.93972084902651       -1.62150893870326
C           35.31836768254329        1.11570019789135       -1.49402231576125
C           36.52598322693563        1.28307679477776       -1.32820643195062
C           37.82565112534301        1.46164244802674       -1.05620582637163
C           39.00952471291627        1.62280631408806       -0.77292155698837
C           40.27426122071120        1.82480892773951       -0.28610424357393
C           41.46462270849937        2.48339523311017       -0.47162836710915
C           48.98118585228680        0.50056128204607       -1.05474519103049
C           50.16618729665257        0.49538975707254       -1.37367114036690
C           51.47550875328585        0.47921880357483       -1.65103835897992
C           52.69697742819287        0.46166079396314       -1.82010823290943
C           54.02655444360018        0.44126233368413       -1.92791951813355
C           55.25875913552370        0.41672795574078       -1.96395120260132
C           56.59763187584763        0.39381979006527       -1.94088584674118
C           57.82175832929000        0.36873106119005       -1.87108467203697
Fe          44.49447074202872        0.64588429676058        0.46145922286040
C           41.19965669415370        1.07055589482840        0.51384155558838
C           41.66251558079844       -0.25595936486005        0.40125232369857
C           40.81970999055461       -1.40074990834586        0.32586713760218
C           41.64485587462586       -2.48332293654005        0.32170483417644
C           42.98502041991934       -1.98093856027010        0.33551020278779
N           42.96773040917498       -0.60716237930730        0.44423164125697
C           44.10653703343628       -2.72351164501230       -0.00626607778988
C           43.94678364189625       -4.18970740026798       -0.15666291742379
C           43.64425644166143       -4.97078137428073        0.95442605049713
C           43.49062462324660       -6.35057779695241        0.82595994635571
C           43.17502776844760       -7.13236776900775        2.04919613348981
O           43.06273360755947       -8.44914805235361        1.82774603167884
O           43.02894923578585       -6.65073370982987        3.14294584659531
C           43.62907252933348       -6.95594849394260       -0.42268518275418
C           43.91716184360290       -6.17716014346436       -1.53250991807171
C           44.07638152855341       -4.80462301271943       -1.40383010642076
C           45.33139688670128       -2.13908529628586       -0.33402561358022
C           46.44479341844664       -2.82989470293081       -0.90588166905260
C           47.39434564684534       -1.89396109211701       -1.16821505598481
N           45.62076635828862       -0.80363845513739       -0.20972328769728
C           46.88102623180860       -0.64673033255541       -0.70012912731289
C           47.66677754529545        0.51695733309903       -0.57767692599997
C           47.26634678653771        1.60258996505375        0.21474916258683
C           48.14952263161430        2.62545627742186        0.69382684182970
C           47.47438812769283        3.31133914927655        1.64745339442524
C           46.15606847814667        2.74759099007299        1.70907262641288
N           46.05274062298855        1.70275893838695        0.82104637419315
C           45.09619576747853        3.25671033754984        2.44503268013205
C           45.37066233397012        4.30398136477417        3.45096346054261
C           44.78690226598933        5.57055628345835        3.36466348787577
C           45.06806342939465        6.54396040908233        4.31309603495802
C           45.93697908923088        6.26914024930417        5.35586728094610
C           46.53647316853674        5.01201559517197        5.44619040387400
C           47.47410603336810        4.76084737886592        6.57126550052420
O           48.00923361094441        3.53263757597408        6.55817346385663
O           47.74365605419298        5.56985603677711        7.42102438772650
C           46.25557447651644        4.03482773445428        4.49471776479457
C           43.77488848357390        2.89886576262945        2.13438522940602
C           42.59231129663741        3.51999681261464        2.68847150719447
C           41.54486192867589        3.11161252492259        1.95886642146751
C           42.05912462677907        2.21220236302046        0.91003109530386
N           43.45191255293894        2.03997788225395        1.15153037232533
H           39.74229882088270       -1.37211626346138        0.30179613149415
H           41.37477213177513       -3.52514538060020        0.26305385161898
H           43.53850452162004       -4.51586953219349        1.93321707660187
H           42.85778719813766       -8.88832354586305        2.66931695648413
H           43.50668738343599       -8.02774972428336       -0.52096003893710
H           44.01673647475829       -6.64020812886753       -2.50762231917892
H           44.28319797311516       -4.19937863115584       -2.27915605286420
H           46.49389089156195       -3.89125867906588       -1.08643457327951
H           48.36877522929902       -2.03193170273895       -1.60843241522471
H           49.16360669782505        2.76842477785605        0.35678844293716
H           47.81532493390152        4.14670429113209        2.23714460872982
H           44.13036286283417        5.80200310991603        2.53352892713082
H           44.60973518580404        7.52284034580533        4.23082694907424
H           46.16749283016881        7.01879692955927        6.10432519517076
H           48.60652990773688        3.44663259117343        7.31911168713928
H           46.71402689985711        3.05597953252139        4.57166746316669
H           42.58980213454923        4.17895453458830        3.54181108548507
H           40.50248354570924        3.37147132657890        2.04331395274115
