220
 energy: -381.461518403867 gnorm: 0.000533707662 xtb: 6.5.1 (b24c23e)
Zn          40.89365607129898       -0.02117441515168       -0.03193992162114
C           37.48209369101559       -0.02887109423283       -0.05677891129767
C           38.10189015542306       -1.25005123638587        0.17930613998243
C           37.41737222886273       -2.48489425545355        0.44365058079218
C           38.36824201160955       -3.43134549663138        0.64265111878187
C           39.64669982429424       -2.78771762271311        0.49149652984566
N           39.44949348341616       -1.46585847235308        0.21773382180171
C           40.89309580495883       -3.40925691533212        0.63215401286461
C           40.89671272157844       -4.86272149830812        0.92672077103481
C           41.44600180914063       -5.35946454691392        2.10856155557098
C           41.42642710226524       -6.72520171973883        2.34245078528961
N           40.90899413214314       -7.59973949860646        1.48536162693605
C           40.38531955640296       -7.13522961808161        0.35543612217810
C           40.35335026050821       -5.78711676896719        0.03523650312872
C           42.13809490761418       -2.78025153257529        0.51806300696616
C           43.41058666741812       -3.44251491302099        0.59776705836240
C           44.36558543225685       -2.49666148971499        0.40907290906581
N           42.34468209065855       -1.44911154365854        0.27373891555422
C           43.68917083830611       -1.24858939212664        0.21020208528718
C           44.33085096667296       -0.01841246059567       -0.03418127773165
C           43.68709008068740        1.21269032498051       -0.26826630513687
C           44.36200627975726        2.45273994173637       -0.51608662033121
C           43.40550956585628        3.40039916608377       -0.68741480921145
C           42.13363840173995        2.74953274111368       -0.53606840389285
N           42.34223566446192        1.41905500599210       -0.28945443645208
C           40.88739534530877        3.37513246875788       -0.65424076533102
C           40.88556924470205        4.83721058477382       -0.90276817048204
C           40.33437199954172        5.37634587257194       -2.06474767530456
C           40.35586028048078        6.74968867813917       -2.24984304921375
N           40.87737650718093        7.59241794583122       -1.36400641728399
C           41.40356938491728        7.08725025686646       -0.25273760898067
C           41.43313408332093        5.72873413685359        0.01941175249794
C           39.64212413490748        2.74318565213285       -0.55472060184497
C           38.36258365043085        3.39643461098620       -0.64227320173249
C           37.41333996634371        2.44133220709886       -0.48042562197221
C           38.09993651168110        1.19561435554141       -0.28054348622657
N           39.44716935469563        1.41222371519139       -0.32751503061957
H           36.39645994998640       -0.02892873095508       -0.05289200109379
H           36.34520889236548       -2.59925431217155        0.47778424375966
H           38.22186964803753       -4.47239550942575        0.88223397800581
H           41.86913218045717       -4.68300741708724        2.84171490124155
H           41.84462318919233       -7.13439647710626        3.25756133432050
H           39.97311503313936       -7.87386585823743       -0.32594620759033
H           39.92690302115607       -5.45641949776917       -0.90438303160059
H           43.55333015027423       -4.49868939507910        0.76012898911918
H           45.43531652815894       -2.62983895782532        0.39274992429952
H           45.43219420433769        2.57781019609669       -0.55331282148251
H           43.54743214079325        4.44605019937817       -0.90807137763118
H           39.90899822843513        4.72740596987793       -2.82107641094247
H           39.93606294012868        7.19175710741777       -3.14878976132852
H           41.81982926978698        7.80044718948104        0.45285987678132
H           41.86198943880586        5.36378742245629        0.94518078108685
H           38.21422981875398        4.45323731301524       -0.79637184666921
H           36.34105611710188        2.55936107628639       -0.48569412630084
Zn          73.65793604615276        0.05427875521334       -0.01589520392449
C           77.06894488988006        0.04440017163752       -0.05416915138164
C           76.45095042183819        1.26046611131434       -0.31958902099606
C           77.13715172847623        2.49679842204560       -0.57257779794609
C           76.18759039492305        3.44579928624285       -0.76547934034034
C           74.90818472939719        2.79822129805298       -0.64144745351823
N           75.10361917159133        1.47657443124293       -0.36545584029992
C           73.66315819817619        3.42896645761842       -0.74893977993521
C           73.66419647665353        4.88104200536459       -1.05137889990087
C           73.13894019304207        5.80810665730321       -0.15163027311879
C           73.16463913600749        7.15524793650826       -0.47576766015303
N           73.66641580726832        7.61646374683686       -1.61704852523416
C           74.16688326621589        6.73952696259923       -2.48151785381580
C           74.19070777475154        5.37413219100754       -2.24472842448054
C           72.41736652406351        2.81111958490991       -0.59217093747164
C           71.14465244065981        3.46039809861744       -0.74436775433679
C           70.18877469285557        2.52044969774032       -0.53218163120550
N           72.20993566829010        1.48926446935917       -0.30288995101705
C           70.86503581128518        1.28648541362986       -0.25828531793532
C           70.22286117169038        0.06352143279426        0.01557616241397
C           70.86366888936688       -1.16142207070856        0.28412187627626
C           70.18605278107951       -2.40370828829335        0.51324898663211
C           71.14071917844618       -3.34842851170131        0.70892134620766
C           72.41406786810612       -2.69065569280591        0.60660721853807
N           72.20831116937268       -1.36387791094775        0.33943251943713
C           73.65932452318694       -3.31853955448535        0.72575320761736
C           73.65727077647163       -4.76765325834162        1.03981663662666
C           74.20890599922598       -5.70110895114573        0.16267457673669
C           74.17782935870102       -7.04553765579968        0.49772960504679
N           73.64686929241765       -7.49857195122866        1.62897529675521
C           73.12149127178002       -6.61557353500325        2.47240205360153
C           73.10107942193534       -5.25247153935377        2.22339354559700
C           74.90526587354353       -2.69900471330193        0.57135067151457
C           76.18407916549759       -3.33761844374297        0.74004269141550
C           77.13448579567850       -2.39555024641576        0.51924314753060
C           76.44944098614423       -1.16861804162690        0.22159656824008
N           75.10190404118580       -1.38409915024584        0.26559213304345
H           78.15458456263534        0.04396221087216       -0.05285377423222
H           78.20948421686325        2.61317419162062       -0.59069929174187
H           76.33524501165694        4.49536463198994       -0.96361580511198
H           72.73008315331261        5.47932768533041        0.79646256171792
H           72.76583953128507        7.89579510485803        0.21149637648267
H           74.56661568387865        7.14611542610431       -3.40600705501470
H           74.59847465540535        4.69584399069463       -2.98484430362977
H           71.00195849923395        4.49979535197793       -0.99239076728804
H           69.11822125228282        2.64641007733804       -0.55755846405445
H           69.11576738356308       -2.53414809976573        0.51040447651949
H           70.99649628727343       -4.40126273271190        0.89038414971213
H           74.64096890789145       -5.38006408978959       -0.77775116472677
H           74.59706082203857       -7.79077050521405       -0.17210173316638
H           72.69710397041001       -7.01539838961591        3.38880435674751
H           72.67196481996831       -4.56898270538470        2.94646878827152
H           76.33101017206243       -4.37205209815100        1.00646705136367
H           78.20667235732587       -2.50798319987313        0.55841269464594
C           45.74086372539967       -0.02009884165909       -0.04855526975086
C           46.95789729083928       -0.02059084290303       -0.05791861544811
C           56.66823148388974        0.00228554600018       -0.01932116880841
C           57.88625580273914        0.00443515785972       -0.01772949062405
C           67.59553793644353        0.05633846120555        0.00208290928157
C           68.81215004937168        0.06272120583527        0.01134816895293
Zn          51.81176851076525       -0.01734959444583       -0.04920476920236
C           48.36748213736948       -0.02176545180090       -0.06062937320837
C           49.01183148060793       -1.02270222565503        0.69301775758552
C           48.33873557884000       -2.00042433196372        1.49554847536617
C           49.29530912798485       -2.78863290418313        2.04957417766216
C           50.56386700381228       -2.30153847824610        1.58558304490640
N           50.35590844626358       -1.21906214934035        0.77394060424506
C           51.80998902253108       -2.84119539458246        1.92312175628052
C           51.80937106394167       -4.05239953249300        2.77872282724396
C           51.20856017308058       -5.23884623260350        2.35899520070703
C           51.23320376787043       -6.34272017480036        3.19659119553453
N           51.80213560525920       -6.32846640384925        4.39783659383919
C           52.37561957676523       -5.20113367844510        4.80670031229681
C           52.40759391701733       -4.04814610719524        4.03854820866383
C           53.05616890778845       -2.34049549299734        1.53083529738414
C           54.32294218303422       -2.94897613181614        1.82433777368668
C           55.28091744081298       -2.15877130997051        1.27569311263169
N           53.26718841646564       -1.20406322885840        0.79664887803593
C           54.61152309478391       -1.06264873504438        0.64108076705186
C           55.25934079670180       -0.00233164059692       -0.02548867195114
C           54.61142138803864        1.05212611120239       -0.70127365396959
C           55.28021523114546        2.15272631047194       -1.32880219429673
C           54.32354439981287        2.93101480505979       -1.89638865624755
C           53.05815099650352        2.31135399875892       -1.62065991676223
N           53.26839135042114        1.18025300579943       -0.87822911205837
C           51.81369169170925        2.79968291551368       -2.03394343512728
C           51.81801806918423        4.00272439853724       -2.90091267585177
C           52.43675709318292        3.98955350238134       -4.15081803000757
C           52.41158680874566        5.13485868924734       -4.93059027199303
N           51.82561303995773        6.26299812652887       -4.54217569775085
C           51.23664562998189        6.28564499918554       -3.35076721822068
C           51.20414590166478        5.18989181759479       -2.50278950659987
C           50.56696563486005        2.25549793784915       -1.70600145829594
C           49.29987080277137        2.73545806337017       -2.18154907951901
C           48.34208513399546        1.94877406207425       -1.62739201628424
C           49.01310293153274        0.97766721715948       -0.81511338293529
N           50.35706831429002        1.17695593630943       -0.88962399695778
H           47.27052598845334       -2.06381941534022        1.62664833272156
H           49.15558764020129       -3.61726480901287        2.72484332580766
H           50.74215775286896       -5.30081003581599        1.38292672532234
H           50.77588989945165       -7.27873871922565        2.88926706567846
H           52.82945339265293       -5.21952832370010        5.79331523789385
H           52.87674198322334       -3.14825847199756        4.41831099333848
H           54.46038787560976       -3.87088731639451        2.36597454361403
H           56.34802493982126       -2.30928859500166        1.28577479600490
H           56.34567902413479        2.31457555222352       -1.32084449033268
H           54.46068805261669        3.85221948562142       -2.43929055448550
H           52.91705826077882        3.08867265178609       -4.51395069481997
H           52.88193255886296        5.14625698608736       -5.90955435360740
H           50.76970251884787        7.22220128305638       -3.06002779076971
H           50.72203947484667        5.25913280884654       -1.53488430073865
H           49.16182777040572        3.55911222001404       -2.86323607424481
H           47.27444519647968        2.00829723384460       -1.76499777789450
Zn          62.74343254680007        0.02392695392289       -0.01380012065803
C           59.29518164647468        0.00868768469547       -0.01745298327141
C           59.94573419362457       -0.80540262052444        0.93235395827912
C           59.27923060999574       -1.59436856224866        1.92525056977129
C           60.23886129061220       -2.25810493265888        2.61922128164310
C           61.50391992222964       -1.88016894212410        2.05512311401249
N           61.29023728144754       -0.98353978248277        1.04269294821963
C           62.75095247247021       -2.34321876015336        2.48892188268095
C           62.75231886207214       -3.36788256549093        3.56106994889005
C           62.15948934250721       -4.61533898836621        3.36768689083952
C           62.19147551250402       -5.54612461633876        4.39388032853381
N           62.76021359817300       -5.30702323015100        5.57130211905234
C           63.32361553165590       -4.11893370060804        5.76583979134935
C           63.34738638526905       -3.12634039696148        4.79887445326176
C           63.99620749994230       -1.92863041789268        2.00396894287508
C           65.26762686615669       -2.44001409368511        2.43328869909039
C           66.22221848524335       -1.77043343723246        1.73796571759653
N           64.20066365999106       -0.97564049650680        1.04303256759900
C           65.54482783354420       -0.85439240762058        0.86872098563255
C           66.18536503902064        0.04763048800804       -0.00282608044190
C           65.53838812383161        0.93816448794426       -0.88128381504313
C           66.20873838709137        1.85689895728888       -1.75309430990396
C           65.24962327543238        2.50579383132702       -2.46175405306023
C           63.98267195957262        1.98012684691516       -2.03655991244367
N           64.19384106158601        1.03934062968003       -1.06517585241451
C           62.73527707421609        2.37176528963372       -2.53499743038023
C           62.73155261953968        3.37499689746879       -3.62733114123146
C           63.33597030808243        3.11143733902402       -4.85618741174037
C           63.30598345154218        4.08049737720172       -5.84643091274841
N           62.72811740758019        5.26630964868856       -5.68253481245280
C           62.15116399986285        5.52660340560113       -4.51370205998959
C           62.12423675408672        4.61987772040940       -3.46587847000214
C           61.49144966434083        1.90057754217686       -2.10103109793671
C           60.22451566684078        2.25914528229408       -2.67342381409133
C           59.26915115528211        1.59580106274161       -1.97318268833044
C           59.94043179475909        0.82401868920173       -0.97005570290392
N           61.28336538725556        1.01400401790066       -1.07842886157638
H           58.21280991735194       -1.62336484073013        2.07819119573017
H           60.10397276094197       -2.93190888470677        3.44987928386830
H           61.69419088911565       -4.85863735963717        2.41982903963333
H           61.74157436982520       -6.52614824999125        4.26407245522650
H           63.77708110438400       -3.95229549353182        6.73864406715048
H           63.80867060851202       -2.16822662329411        5.00701863283282
H           65.41108046676709       -3.21778054514698        3.16584250539878
H           67.29234576152318       -1.88450336534196        1.80351885621427
H           67.27759169369976        1.98572279672577       -1.81205163960396
H           65.38690572856551        3.27877873953346       -3.20055044211258
H           63.80919829477953        2.15397639344510       -5.03904278462420
H           63.76592016523114        3.89605910845885       -6.81295914643880
H           61.68994899143479        6.50438841415505       -4.40912928024443
H           61.65141737322723        4.88036028152435       -2.52635555120661
H           60.08543035752251        2.92069952280741       -3.51318752989687
H           58.20300437375223        1.61244102162894       -2.12980366188025
