187
 energy: -342.430653046727 gnorm: 0.000778994866 xtb: 6.5.1 (b24c23e)
Cu          32.01197182801236        0.01096054600768       -0.01289926408313
C           28.60886553053245        0.06722087292526       -0.12297173877843
C           29.24794832001078        1.28861509407733        0.02712872290140
C           28.57639259273575        2.54846824800060        0.17255733904784
C           29.53720420165010        3.49289553098816        0.32505052604272
C           30.80595321425293        2.81894130025069        0.26299682242935
N           30.59893948935511        1.48130029560728        0.08670852835738
C           32.05182583536106        3.43547865836520        0.40147123710969
C           32.07106644502299        4.90590273691194        0.59298751355216
C           32.58093399287895        5.45699876340102        1.77249205816261
C           32.59718958120711        6.82653366180731        1.95282994586832
C           32.10957431480778        7.67738067314379        0.95526440899422
C           32.14118672827951        9.13552234150539        1.17016674275623
O           32.56703219968567        9.65574389948558        2.16954948809839
C           31.60256651453080        7.12806443895450       -0.22483163194227
C           31.58106897396059        5.75598270619605       -0.40204786583664
C           33.28233142669684        2.77575803883533        0.37471472586114
C           34.56219620695671        3.42055294859894        0.45957622369098
C           35.50442471825788        2.44894900767609        0.36103514691992
N           33.46539125527513        1.42756816548728        0.21814324816878
C           34.80818830527265        1.20656491755154        0.21016737010473
C           35.43947908718041       -0.04030010331725        0.05869986335261
C           34.77778948341792       -1.26974690858322       -0.10333245566044
C           35.44277413035049       -2.52661406134806       -0.27316445638905
C           34.47653101782048       -3.47181598037473       -0.39365817349217
C           33.21307100412834       -2.79748116922353       -0.29223513736514
N           33.42969907914684       -1.45556682721313       -0.12548400429596
C           31.96541907712281       -3.41815207157448       -0.38549596132080
C           31.94700774688946       -4.89301214264494       -0.53601907453658
C           31.39763492779223       -5.48033555847223       -1.67908062157392
C           31.38357634941597       -6.85633257377287       -1.82272522365198
C           31.91409071176815       -7.67384721231545       -0.82185146669028
C           31.90832458767433       -9.14256639104535       -0.94906194080234
O           32.35052613513842       -9.88837831743984       -0.11307773671756
C           32.46134229679168       -7.08659766078996        0.32378108236347
C           32.48018866911844       -5.71236304676329        0.46374506498993
C           30.73479647562788       -2.75751177598343       -0.35004518593480
C           29.44885294886199       -3.39868917526422       -0.40546738688793
C           28.51244081796381       -2.42041337030300       -0.33837290287232
C           29.21639592596554       -1.17471935773517       -0.22930805781959
N           30.56224283360882       -1.40855704324261       -0.23244194868020
H           27.52412361173831        0.08342460675041       -0.14515636114380
H           27.50567268835022        2.67814558045563        0.16555797963151
H           29.40524567300274        4.55179842055131        0.47880130062582
H           32.94930899823408        4.79929482546286        2.55169696001434
H           32.98549974767632        7.26177387534605        2.86739693380977
H           31.73646916157926        9.72991017395534        0.32322829490608
H           31.22624595084011        7.78119553731598       -1.00551117625273
H           31.19836916387750        5.33301276425667       -1.32410270908503
H           34.71674110498171        4.48203671709652        0.56577132835986
H           36.57719955870368        2.55511485731270        0.38207897777016
H           36.51258597629359       -2.65834548170214       -0.30044936071874
H           34.60444185354766       -4.53035769489258       -0.55181026090910
H           30.99674239618687       -4.84796631409354       -2.46327070702098
H           30.96076028719492       -7.30349538073297       -2.71655029548514
H           31.45946856261312       -9.51647564299575       -1.89395062819050
H           32.86776431598990       -7.72926484757477        1.09738399708890
H           32.89448847494540       -5.26051708220635        1.35796799571746
H           29.28967854861430       -4.46280061328970       -0.47354083000557
H           27.43854627084073       -2.51976575085151       -0.35176625620333
Cu          58.94665665720921       -0.03410522498626       -0.05772130550378
C           62.35145990496945       -0.07516884460216       -0.11255826707208
C           61.71269844490315       -1.30542477649935       -0.14721477607302
C           62.38447780719346       -2.57342023842799       -0.16405060002412
C           61.42325885367919       -3.52966336445377       -0.16661052277101
C           60.15426215282441       -2.85332816170409       -0.16408959749965
N           60.36127591861329       -1.50421420936295       -0.14544790418956
C           58.90705248422672       -3.48229255032223       -0.14868705107699
C           58.88597616484825       -4.96498649759550       -0.16054487829742
C           58.34130637336843       -5.66850003633320        0.91818609855836
C           58.32244571856558       -7.04971278320417        0.91284874857711
C           58.84220872968865       -7.76002446100175       -0.17444920752853
C           58.80546952130752       -9.23362025753964       -0.15877316262300
O           58.34914913368110       -9.88214865753308        0.74799101162617
C           59.38429244103384       -7.05829899063841       -1.25391106231044
C           59.40826804600118       -5.67482267711606       -1.24496126802390
C           57.67563864125166       -2.82430975468364       -0.11679454490831
C           56.39622420407813       -3.47375892777381       -0.16567510447907
C           55.45359633380471       -2.49787280394741       -0.14017552000968
N           57.49227068693844       -1.46793845259435       -0.07397406605462
C           56.14928584645111       -1.24750399044076       -0.08016032531230
C           55.51784729155514        0.00762595410124       -0.03681706679482
C           56.17961573002300        1.24661853983531        0.01088246657203
C           55.51497628330696        2.51500637657432        0.03181127687922
C           56.48132880570734        3.46704246549210        0.06691351329701
C           57.74452898174935        2.78459742131778        0.07426839505170
N           57.52771562769608        1.43307565088949        0.03109885813060
C           58.99227198172481        3.41178624360794        0.08603314327647
C           59.01085671751463        4.89273170805107        0.15755768811081
C           59.56529221625563        5.64371184043058       -0.88257831564430
C           59.58028013927301        7.02572252391900       -0.81890794827741
C           59.04603748723347        7.68490627417233        0.29084690772113
C           59.05279382032726        9.15613867472572        0.38460456373866
O           58.61083681936064        9.76903190538110        1.32242761225172
C           58.49393549335484        6.93353259622441        1.33363285542380
C           58.47368402795041        5.55381637310795        1.26632071012399
C           60.22339843677678        2.75318710027257        0.03532825098440
C           61.50877548372954        3.39566150911426        0.08926003505496
C           62.44604096502272        2.41788721006730        0.02738446463499
C           61.74303081772006        1.16946060601150       -0.05315868509268
N           60.39691435967144        1.40145815778008       -0.04209204973329
H           63.43646822542296       -0.08826353068847       -0.11672364794276
H           63.45545825144237       -2.70115598224987       -0.16457338986729
H           61.55496873472130       -4.59966950366723       -0.15916993687822
H           57.94748338635760       -5.12042791700563        1.76669992894667
H           57.90705122249670       -7.60278464161931        1.74843824926510
H           59.24008970487188       -9.71031340168639       -1.06322571105389
H           59.78578216029664       -7.60162426795798       -2.10318601337664
H           59.81795073620088       -5.13296857646749       -2.08999835069992
H           56.24278495967749       -4.53896130330681       -0.22677225725696
H           54.38100506746217       -2.60530401847430       -0.16383432172663
H           54.44533001166967        2.64985661603866        0.01512587975406
H           56.35394315996679        4.53738204939241        0.07257310796831
H           59.96966006632785        5.13526865117106       -1.75064610092129
H           60.00702772995935        7.60108739032955       -1.63407859785571
H           59.50617850855487        9.66661413210030       -0.49183700100331
H           58.08461857424935        7.45371305769124        2.19300919681188
H           58.05521627527823        4.97374744531200        2.08108609461401
H           61.66679117950211        4.45850378675912        0.17705234386649
H           63.51982950702228        2.51807660621357        0.04302083221613
C           38.06743225208405       -0.06240929983929        0.05616620506032
C           36.84576539792737       -0.05589424359960        0.06006797443603
C           39.41717340281677       -0.06408068691212        0.04626295594160
C           40.63892949275817       -0.05959274232488        0.03645895664899
C           51.53962723595124        0.02810126977069       -0.04873931237307
C           50.31790833008937        0.02031862731117       -0.04555361567359
C           52.88965726706120        0.02948102498870       -0.04848647840879
C           54.11127569219285        0.02263584132334       -0.04514017321661
Cu          45.47880672330960       -0.02013298364221       -0.00382565930628
C           42.04462196123849       -0.04957581657840        0.02563823652113
C           42.68490397282579        1.15968540660478        0.34983497878362
C           41.99919801673353        2.38156384046315        0.64539572532965
C           42.94929072754982        3.30923735558426        0.92685071130441
C           44.22189547987226        2.65576851541578        0.81088984049935
N           44.02831367758929        1.34968499983558        0.44902041821808
C           45.45903302032253        3.27110798257896        1.01511660042285
C           45.44825588677745        4.68204474330530        1.47056434989540
C           46.01820419037995        5.68776672217538        0.68437477251692
C           46.00385344399485        7.00088059729308        1.11382001500743
C           45.42578144769754        7.33769894597245        2.34225650907587
C           45.42682024679474        8.74556851819403        2.78008508026304
O           45.89779399013464        9.64652187194203        2.13445106202393
C           44.85837468914184        6.33318283623960        3.12993805616504
C           44.86669462917204        5.01964156438234        2.69589838831994
C           46.70364592869065        2.66519875084609        0.83041017187762
C           47.96965888213826        3.28612719502121        1.09868348801619
C           48.93020429118141        2.37440951202213        0.80173707437253
N           46.91187799496723        1.38558270997339        0.38971918447114
C           48.25778884725922        1.18918169633759        0.36130021636665
C           48.91189920086521        0.00990068850884       -0.03668763333729
C           48.27126723321138       -1.18105421101738       -0.42210603039766
C           48.95571928536439       -2.35545827349499       -0.87243972373379
C           48.00579455030755       -3.28584087267028       -1.14537828161921
C           46.73462447966880       -2.68675879083519       -0.85323395830933
N           46.92883680482181       -1.40169901549771       -0.42249761529624
C           45.49753703306425       -3.31625875546020       -1.00896191365819
C           45.50358841686337       -4.73133469070511       -1.45119100786898
C           46.10962082784249       -5.71666359114508       -0.66694256576853
C           46.11150101565518       -7.03750921191010       -1.07891375226617
C           45.51283895004240       -7.39838591406239       -2.28844459633709
C           45.50353138599998       -8.79785266715569       -2.75197356520097
O           45.00590972281815       -9.15574611837489       -3.78883056152617
C           44.90958883126999       -6.41180114531692       -3.07550362534951
C           44.90185960526587       -5.09437019866926       -2.66001118720016
C           44.25368891777131       -2.72075445208322       -0.78744369288741
C           42.99013833509555       -3.39548354082689       -0.88064329328905
C           42.02948907794416       -2.48204314354603       -0.58908469174709
C           42.69969246341722       -1.24812727776157       -0.30815063005375
N           44.04430995584003       -1.41645897671456       -0.42770640324632
H           40.92839199254356        2.50682826645904        0.62935691348263
H           42.80514458548431        4.34819150468215        1.17540492869901
H           46.45690263401265        5.43145713222987       -0.27334846702738
H           46.43813335486805        7.78825500502388        0.50713509589239
H           44.95034883919804        8.91572921091645        3.76908448099510
H           44.41091690381432        6.58520478883789        4.08590381370959
H           44.43535956665165        4.24002336938945        3.31373298109012
H           48.10299729077845        4.28604789484857        1.47846012992886
H           50.00010914512024        2.48274894874229        0.87983260499998
H           50.02553628460983       -2.44469216186086       -0.97309853201906
H           48.14942482815128       -4.28456693079167       -1.52469994935212
H           46.56490867088031       -5.44145235025977        0.27777688149132
H           46.57853871274495       -7.79720716373523       -0.46057789968967
H           46.00074846330036       -9.51083287492382       -2.06025494199978
H           44.45052495427438       -6.70038297270141       -4.01497496796717
H           44.44308408668577       -4.33005327751653       -3.27707650909639
H           42.85886091721196       -4.43757151109660       -1.12293469857112
H           40.96113522006802       -2.62393518491779       -0.55685354993805
