288
 energy: -453.550735772778 gnorm: 0.000560363513 xtb: 6.5.1 (b24c23e)
Zn          42.53854040894017        0.04975418986394       -0.10486312964390
C           39.13248332954734        0.15598682126568       -0.27621824347604
C           39.77247380962609        1.34124843263388        0.06640517455843
C           39.10981258705372        2.57540699587723        0.38327792370111
C           40.07603187718741        3.48004767253273        0.68079834465901
C           41.34243585147131        2.81176940476713        0.53906878062851
N           41.12246766369915        1.51607382375590        0.17266024650605
C           42.59687532479111        3.39078291495315        0.76528897330108
C           43.82849767101720        2.73694749294290        0.65837456784586
C           45.11328423439559        3.35503790768810        0.83642692324938
C           46.05129463769313        2.39609130938572        0.62789975549517
N           44.01133413038665        1.41804265609096        0.33684861317886
C           45.35068812615835        1.18479068727471        0.31659757842685
C           45.97084175679482       -0.04900796332928        0.03191422067970
C           45.30546408637986       -1.25048085231850       -0.28617577754223
C           45.96013829000436       -2.49088738596442       -0.58266310681081
C           44.98739343446762       -3.39924241001079       -0.85027670263914
C           43.72704525794756       -2.72256910680885       -0.71553351911471
C           42.47309806968414       -3.30170736799086       -0.93398756132938
C           42.44471342456816       -4.74687606951737       -1.27791623492283
C           41.97369718576828       -5.16717766669650       -2.51980886981443
C           41.94868533369549       -6.52009702836202       -2.84556455717916
C           41.42824486579384       -6.96293631935926       -4.18660512116742
C           42.39064892593342       -7.45357955455214       -1.91437897721602
C           42.86043302681977       -7.04927637610111       -0.66708382614918
C           43.34678671121290       -8.07229498382185        0.32390025231159
C           42.88924874675084       -5.69500238504632       -0.35650748442983
C           41.24230199469810       -2.63943446065513       -0.85519871486668
C           39.95281997994443       -3.24754719383968       -1.04979937168610
C           39.02112782536703       -2.27796541660228       -0.87011241874665
C           39.72840858817553       -1.06842783521600       -0.55451394277355
N           41.07034407731626       -1.32038217832746       -0.55196256395592
N           43.95889925133817       -1.41606220601558       -0.37565638884978
C           42.62212365175847        4.82453859204777        1.15315372688446
C           42.15355953709815        5.80075783164821        0.27499134369254
C           42.17561833930522        7.14382193679477        0.63465118193441
C           41.69481931090725        8.19733417019754       -0.32662816497069
C           42.66697641562256        7.50736752940652        1.88518967643798
C           43.13661747031296        6.54467264706470        2.77343630735500
C           43.64196401741420        6.94586909909938        4.13311823721908
C           43.11378076715467        5.20483982426829        2.40087296050878
H           38.04803871537378        0.18676065253346       -0.31871652294771
H           38.04038276376967        2.71793575221169        0.38262540137929
H           39.94748556937257        4.50793470965799        0.98036525298981
H           45.27466633833011        4.39352091552933        1.07716349986217
H           47.12428234634800        2.49386860994686        0.67467569443514
H           47.02840198915929       -2.63877590502295       -0.58829624923319
H           45.10978400766592       -4.43403485927990       -1.12723732974409
H           41.64098210113410       -4.42953443663215       -3.24203445958557
H           41.80116962734063       -7.95492622266305       -4.44166065430114
H           40.33671834130682       -7.00256224902141       -4.16713605541007
H           41.72639968702638       -6.26217725120265       -4.96711914741553
H           42.37024516932356       -8.51012785456143       -2.16139519419513
H           43.41209091834003       -7.64576638233714        1.32480326176738
H           42.67608899038743       -8.93202142746692        0.35023084653942
H           44.33901651222904       -8.42730088717351        0.03666714944620
H           43.24390201080008       -5.36726381455173        0.61465377065118
H           39.78671664108606       -4.28703246938196       -1.28371732056586
H           37.94768870768150       -2.36426389808777       -0.93549976585354
H           41.78479087043940        5.50622044710125       -0.70153542450010
H           41.21045889170460        9.01600906326953        0.20641503003626
H           40.99015031892034        7.77710958279060       -1.04435396571618
H           42.54173190968583        8.60842476330781       -0.88086246527394
H           42.68418688536784        8.55428091274221        2.17050412729024
H           42.81272417284347        6.97297390614229        4.84386289184666
H           44.09424877778277        7.93741459309339        4.10241015678819
H           44.37972955712384        6.23189897458502        4.49973273295632
H           43.46612198616386        4.44415602121105        3.08904611137859
Zn          90.68633625428586        0.05256047044701       -0.07599605074453
C           94.08964370222189        0.20154779342299       -0.25825777878921
C           93.44299312047335       -0.46624900131442       -1.29154812483673
C           94.09819111716168       -1.11589504221770       -2.39228226832670
C           93.12730899800941       -1.66469665351342       -3.16466986114409
C           91.86530897645412       -1.34855403105113       -2.54985485466576
N           92.09266185903216       -0.62686360338440       -1.41451338274768
C           90.60873167033191       -1.74244444576580       -3.02466579928374
C           89.38188550504401       -1.46414091120334       -2.41360899842735
C           88.09385817091977       -1.82582458752421       -2.93813106142394
C           87.16181256313938       -1.35546112663252       -2.07067871170790
N           89.20689184448665       -0.77544804150189       -1.24290293067558
C           87.86906313848164       -0.69836132229013       -1.01066531045503
C           87.25634637516906       -0.06247206082195        0.08750492977253
C           87.92701095554257        0.59874396349956        1.13529577683100
C           87.27919824745399        1.24250419903891        2.24051262892969
C           88.25691339897709        1.76013761819839        3.02711562336505
C           89.51362506866957        1.43454344594453        2.41085128220640
C           90.77081377717242        1.80805710789886        2.89655060738142
C           90.80651201441462        2.54487738412885        4.18628796246218
C           91.27902683075679        3.85430525480827        4.24002351293299
C           91.30968995580908        4.54573364081166        5.44758730494850
C           91.83149438515827        5.95669834145723        5.49552284302154
C           90.87194561206064        3.91367913610481        6.60637256713303
C           90.40073511105690        2.60355342602965        6.56952395986583
C           89.91844360579555        1.93895463128608        7.83080846811429
C           90.36627895573693        1.92636286851047        5.35647800113624
C           91.99740334395948        1.54442989413291        2.27577179762802
C           93.29048373262732        1.90596515186106        2.79333966615703
C           94.21588443904423        1.46076429593242        1.90691686402963
C           93.50132634776119        0.81325003594346        0.84241578104179
N           92.16129924457759        0.87916263077584        1.09587708108671
N           89.27473936883911        0.73259945326003        1.25958711813922
C           90.57388344717020       -2.52327520943817       -4.28803816384424
C           91.01674781842836       -1.95372179925838       -5.48098379743854
C           90.98155588763466       -2.67995765466256       -6.66634479312244
C           91.43273848619747       -2.05204898588271       -7.95757989927609
C           90.50347058723398       -3.98712131958992       -6.65182896990029
C           90.06026495169175       -4.57044087293332       -5.46877935577287
C           89.56875235898788       -5.99291007198132       -5.45910136766311
C           90.09582853391774       -3.83269095766375       -4.29024585763010
H           95.17350597032816        0.23833618086501       -0.30991767492319
H           95.16631514764906       -1.14817960622369       -2.54085512716260
H           93.24974207998973       -2.24254316605070       -4.06686419308363
H           87.92634400390656       -2.35976607979197       -3.85969222537378
H           86.08865343860025       -1.43781206070557       -2.13836249984565
H           86.21177208517940        1.29093718105265        2.38674537349403
H           88.14039344406407        2.32432833603232        3.93849384888625
H           91.60818131386797        4.34097974468633        3.32830894865925
H           91.45851263049089        6.48080839152832        6.37551948617442
H           92.92298332128208        5.94809504694902        5.53987062279265
H           91.53448076355913        6.50893447484500        4.60336079987111
H           90.89673457638122        4.44675755458131        7.55132834747935
H           89.85706165401967        0.85820934892842        7.70338834781161
H           90.58914994783989        2.15830498787526        8.66246319943557
H           88.92501143005984        2.31066695229549        8.09156725520729
H           90.01028345657940        0.90268238013999        5.31519241936459
H           93.46306825383954        2.42566944787425        3.72230073892427
H           95.28962050996306        1.55037508240045        1.96230410553078
H           91.37505648081810       -0.93001569115769       -5.48190400808651
H           91.91222992378950       -2.79056033605513       -8.60073980851180
H           92.13326979028808       -1.23800073200998       -7.77089439795883
H           90.57182996927168       -1.64502780045409       -8.49295165439861
H           90.47557429133663       -4.55775622155977       -7.57450335555046
H           90.40716088494858       -6.67401743321899       -5.29572439718619
H           89.10419008755726       -6.24985917520229       -6.41137401123819
H           88.84462942160923       -6.14832666574728       -4.65911447860176
H           89.76351205534561       -4.28003250455408       -3.35975158698132
C           51.17219920650115       -0.12027851124099        0.07198100512048
C           49.94355168226951       -0.11395153208386        0.07444747887948
C           48.59938544951108       -0.09937142082460        0.06910698978687
C           47.37545023008333       -0.07941849644057        0.05623821923811
C           52.51630597032504       -0.12195255081139        0.06516547040477
C           53.74058248260302       -0.12079017669078        0.05439759683081
C           67.22711097766619       -0.04013616042598       -0.04666649616649
C           65.99823918254413       -0.04053242769645       -0.05389420172135
C           64.65458855401090       -0.04575994520028       -0.05629838708155
C           63.43010866654217       -0.05272990716505       -0.04799404327479
C           68.57078243623999       -0.04012319724543       -0.04068835015859
C           69.79525489236640       -0.04303551939205       -0.03179684539487
C           83.28155447422328       -0.09329230207157        0.16673333792065
C           82.05359546113144       -0.09472504581057        0.16665799008572
C           80.70822159456566       -0.09279969290940        0.15673930853715
C           79.48465015095880       -0.08845551005479        0.13919749817438
C           84.62702420034257       -0.08832832412834        0.15371302101939
C           85.85037529147853       -0.07985937148456        0.13236800077745
Zn          58.58559351205629       -0.08822970567887       -0.00809092552300
C           55.14498995353321       -0.11236092962650        0.03779315202653
C           55.77914970157325        1.13962110116222       -0.09890685858101
C           55.09267110144696        2.39384359759096       -0.19133976115987
C           56.04113201870435        3.35638106806302       -0.32520990060724
C           57.31659372464325        2.69665268464183       -0.32355159643444
N           57.12048899899902        1.34954949752357       -0.17402612577662
C           58.55648373527679        3.33505477598904       -0.43612868585105
C           59.80745870492419        2.71145882676070       -0.38342132479598
C           61.07223729110098        3.37299534811958       -0.54074669509352
C           62.03694459824231        2.42404828838550       -0.42714295714119
N           60.02632654255385        1.37269808866980       -0.19331897828091
C           61.37110809906596        1.17399275299129       -0.21036044890201
C           62.02610794494553       -0.06339419954277       -0.04111068582671
C           61.39240588331316       -1.31081422148710        0.13544033698555
C           62.08025181432494       -2.55239306618526        0.33156074860103
C           61.13175659425917       -3.51630489820688        0.45492692307367
C           59.85474272500851       -2.87212033768564        0.32691245890678
C           58.61439550112120       -3.51437414253516        0.40299411839434
C           58.62623281036736       -4.98904003916409        0.58168343108160
C           58.07956742770072       -5.56184368555354        1.72851069625715
C           58.08523691316138       -6.94243275287860        1.90127114393876
C           57.51238806713167       -7.54920664782798        3.15374191058567
C           58.64112791645738       -7.75032775703754        0.91487392923935
C           59.18882701392842       -7.19343845975877       -0.23789617386632
C           59.79739041043396       -8.08095205871206       -1.29004341592224
C           59.18148505388469       -5.81254890959719       -0.39744359108256
C           57.36315959486027       -2.89284234423475        0.32847095332640
C           56.09712537728894       -3.56981818729525        0.36178715957398
C           55.13249048290771       -2.61940762342993        0.26091357875458
C           55.79936334307690       -1.35564677614718        0.15556673935176
N           57.14493823367960       -1.54768796070410        0.19287316120937
N           60.05053961499603       -1.52914435286534        0.14203843486909
C           58.54104401332025        4.80736405525546       -0.63309983117038
C           59.10714213194694        5.65338681670837        0.31896934312133
C           59.08766250401226        7.03280361410732        0.13948844281757
C           59.71251698756520        7.93884609262734        1.16598216802335
C           58.50202979766768        7.56344745851672       -1.00560659962923
C           57.93375808414860        6.73172833421114       -1.96632832363213
C           57.31996014004135        7.31622326520479       -3.20992646375101
C           57.95530562618282        5.35488046699996       -1.77401896641042
H           54.02190515093929        2.51583881048968       -0.15205136897259
H           55.89209218636122        4.42105425063270       -0.40629690173663
H           61.20382151810661        4.42704669181956       -0.72513606690464
H           63.10595938292221        2.55104596040842       -0.49117243628717
H           63.15199849835672       -2.66414762623298        0.37487000646426
H           61.28191038091148       -4.56972017310779        0.62846704620784
H           57.65896645561061       -4.92127931858576        2.49605021810571
H           57.19627707504353       -8.57771478143577        2.97894847352716
H           58.26767664606672       -7.55405230167130        3.94300391037049
H           56.65766201735845       -6.97199399798137        3.50753062003013
H           58.64526349878128       -8.82798878456299        1.04269412281216
H           59.86860698512200       -7.56123252705304       -2.24547618519782
H           59.20266178460260       -8.98528562773854       -1.42350866964612
H           60.80345580014622       -8.38008757650088       -0.98736518433105
H           59.59204435671695       -5.36754165252522       -1.29729046924088
H           55.96462837449740       -4.63683759416230        0.44071417873833
H           54.06269977969593       -2.75529267710691        0.25134172526455
H           59.54766220099027        5.22929480826923        1.21474648174882
H           59.24021687236351        8.92133914134902        1.15687631984083
H           60.77480125232691        8.06991234783550        0.94716011529872
H           59.62305437739779        7.51275868168508        2.16553337923109
H           58.48427614617670        8.63886565026233       -1.15001172126358
H           56.86322701697357        8.28354805349618       -2.99896657359996
H           56.56145007723397        6.64910652397483       -3.61976501406593
H           58.09042311729123        7.46377836972106       -3.97022024720252
H           57.52551036192474        4.69580117229974       -2.52048899748366
Zn          74.63964837453034       -0.06679515317181        0.03855643270910
C           71.19933294566496       -0.04981323074386       -0.01730012780163
C           71.85205019414640        1.19325805123350       -0.14759594383078
C           71.18337581407000        2.45429540181358       -0.27309186220807
C           72.14671012129105        3.40509752407597       -0.38195963611558
C           73.41393426847658        2.73136295171998       -0.33051858726851
N           73.19735299463875        1.38749431311378       -0.17927808830240
C           74.66399910841369        3.35561099652730       -0.39813583262453
C           75.90523778858434        2.71835712356427       -0.29477972217895
C           77.18243220740672        3.36601934368468       -0.40425530528301
C           78.13164026235692        2.40648344843059       -0.25672305135021
N           76.10181998802733        1.37764462674623       -0.09738354238110
C           77.44454622620974        1.16329005440443       -0.06713195600974
C           78.07870984398015       -0.08231315523417        0.11270973514719
C           77.42659565363644       -1.32266334516009        0.26102049910686
C           78.09398844094579       -2.57371765214536        0.46859299754936
C           77.13103963250549       -3.52631605490165        0.56246083638000
C           75.86557662615073       -2.86583546870437        0.40424767376144
C           74.61582104531995       -3.49322916836333        0.44682708581458
C           74.60612266238235       -4.96824514375246        0.62341026082330
C           74.02774368409311       -5.53621435428710        1.75695106812933
C           74.01600175736901       -6.91691809072194        1.92870504380501
C           73.40972792304254       -7.51849267408014        3.16787123311817
C           74.58609878080263       -7.72971130116602        0.95451201511996
C           75.16476835717501       -7.17764540422479       -0.18533073839257
C           75.78909792855549       -8.06988092576286       -1.22414776624587
C           75.17470268580250       -5.79662685619831       -0.34383529134545
C           73.37491468375008       -2.85644350583223        0.34103159247994
C           72.10018360286966       -3.51780572735980        0.34234156749623
C           71.15029018234536       -2.55580029226626        0.21553943269154
C           71.83518686721233       -1.30040264044510        0.12549852678941
N           73.17667496537706       -1.50872704642521        0.19841158996534
N           76.08202996347369       -1.52500970844546        0.23071119654453
C           74.67389201011154        4.82678973959355       -0.60379043229884
C           75.21490560632263        5.67204660597950        0.36347378385705
C           75.22376949634106        7.05006319244878        0.17288793069896
C           75.82372760712225        7.95476745621890        1.21528414798567
C           74.69123313518254        7.58013595806819       -0.99812706609889
C           74.14742913044203        6.74928695869061       -1.97362546889671
C           73.59181013399603        7.33279873187171       -3.24475204905635
C           74.14060301309294        5.37383494619866       -1.77035799216992
H           70.11330623293566        2.58832094492071       -0.27148135692919
H           72.01268468120270        4.47065908053097       -0.47660177501967
H           77.33250189509772        4.41867577791891       -0.58226171554809
H           79.20361663982648        2.52159818614015       -0.28122786463557
H           79.16282454703200       -2.69850707307792        0.53948100038449
H           77.26360570001759       -4.58229435346629        0.73472823328789
H           73.59631612139385       -4.89198262795430        2.51535596812481
H           73.09474286249345       -8.54645011612300        2.98795893916459
H           74.14484318417756       -7.52346519026349        3.97595614755911
H           72.54826629507251       -6.93752935505079        3.49845517967348
H           74.57720932935352       -8.80739911566579        1.08181841280433
H           75.87027372643773       -7.55595355294568       -2.18193466472538
H           75.19952867586254       -8.97731455116724       -1.35905647959860
H           76.79260100563754       -8.36297712573279       -0.90729515864136
H           75.61002883107966       -5.35515146402286       -1.23372762849595
H           71.95262076135738       -4.58302437282779        0.41887898086180
H           70.07959282049467       -2.67893736844278        0.17762624605893
H           75.61398423868461        5.24870615870786        1.27881682935992
H           75.36678355179744        8.94396721836551        1.18179658983661
H           76.89514981035391        8.06863779479535        1.03466721511550
H           75.69143574422181        7.53768591948509        2.21387663988615
H           74.69637650642150        8.65443330970599       -1.15158596484408
H           73.14199071815496        8.30854011113755       -3.05923489649637
H           72.83990233783221        6.67379979638447       -3.67915847476876
H           74.39372621882839        7.46265716042880       -3.97517982004803
H           73.73040114804854        4.71527036581924       -2.52823064467727
