264
 energy: -507.976248766168 gnorm: 0.000449988174 xtb: 6.5.1 (b24c23e)
Ni          50.14436123333676       -0.04696694563600       -0.00227915836743
C           46.75182635837009       -0.14167471727618        0.02460818669608
C           47.41264420462059       -0.28374891918221        1.22663653042419
C           46.74184652350275       -0.45575460992257        2.47919006616341
C           47.69931655496370       -0.45512051551362        3.43523696409964
C           48.95617952440541       -0.29240411233826        2.76423198205052
N           48.77082297482260       -0.20289142466898        1.40739317568570
C           50.17056857802151       -0.15235980848759        3.42254282449500
C           51.37500052507901        0.01905065431223        2.75408936328752
C           52.64003205204626        0.12960655061164        3.41555611714442
C           53.58604230300896        0.16392046415100        2.44723434418596
N           51.54520469273815        0.00049002817227        1.38825096846424
C           52.89831994650752        0.06949241248070        1.19877181112235
C           53.55794886970931       -0.01215163718693       -0.02984200088146
C           52.87887314961263       -0.08931551550191       -1.24793768115266
C           53.54516636729817       -0.18450182705474       -2.50777115578265
C           52.58323720326798       -0.14038109057227       -3.46022788866853
C           51.33127617429121       -0.01239670924677       -2.77757798894608
C           50.11029018786304        0.11984396631413       -3.42600186494581
C           50.09966966443156        0.20451418326927       -4.90519927753381
C           49.44936641380126       -0.76998818125316       -5.66658110891270
C           49.44255694495921       -0.68693041552062       -7.04680207413562
C           50.08190671346846        0.37391458572405       -7.69104476950906
C           50.04419561988897        0.42106737508762       -9.17243574310844
O           50.69299076076290        1.47380680456441       -9.69268866937892
O           49.49097825044601       -0.39479298531908       -9.86503624193623
C           50.73165706543276        1.35006513472968       -6.93508666044544
C           50.74122095727188        1.26247258389413       -5.55400608836499
C           48.90015345667479        0.16962308925193       -2.74632188886449
C           47.62791559487195        0.32890915720844       -3.38855594304604
C           46.68673812910547        0.24186925192901       -2.42012197162296
C           47.38467305771928        0.04690063398093       -1.18607507815977
N           48.74191513078224        0.03362990780567       -1.38993060428165
N           51.52271989272219       -0.01675197629808       -1.41489116563279
C           50.18301994779863       -0.19776204261743        4.90503103605567
C           49.85267166437515       -1.37765390780309        5.57565490725618
C           49.86903606794750       -1.42138448559662        6.95767619592163
C           50.21078241497350       -0.28506891076976        7.69321093148133
C           50.21248799705592       -0.38151476206190        9.17282794827487
O           50.55418696348224        0.76220192040856        9.78497975743329
O           49.93732086018423       -1.37918131578394        9.78944431662251
C           50.53829941516836        0.89624349354204        7.02723212367823
C           50.52634775358541        0.93647589923506        5.64367207382060
H           45.66847258497801       -0.16861523479649        0.03350969186394
H           45.67353405911899       -0.54906611372279        2.59210002411029
H           47.57823278705468       -0.54208563782175        4.50269180265582
H           52.77714065680961        0.15951634735059        4.48403430251378
H           54.65647914945448        0.23532951126613        2.55260452014291
H           54.61251995751206       -0.27203489308117       -2.63080682659453
H           52.69992122121509       -0.19694260490260       -4.53008272587247
H           48.96316595544252       -1.60106970229615       -5.16853374810674
H           48.94398580521591       -1.44207035934799       -7.64452260093752
H           50.62153961529958        1.43162950034881      -10.66012193977821
H           51.22678403334414        2.17654674723165       -7.43094104350556
H           51.23646131177816        2.02668161318550       -4.96567914405206
H           47.48680512675811        0.48900889021392       -4.44502392901917
H           45.61420776331724        0.30509002979235       -2.51196626722871
H           49.59741754412891       -2.26324203169043        5.00498398603192
H           49.61931618280546       -2.33500732319773        7.48587466674835
H           50.53168646413207        0.61601740618989       10.74464675325106
H           50.80091203491682        1.78118776112055        7.59467919425123
H           50.77165698017657        1.85656593277207        5.12541403218415
Ni          98.14776357422812       -0.03524106428278       -0.04903953780006
C          101.54004711178172       -0.12930542296898       -0.08949477696218
C          100.87805068398195       -0.13458606102800       -1.29926566621488
C          101.54732609720691       -0.16591798892375       -2.56397051710548
C          100.58897532363164       -0.05579470893144       -3.51279854678668
C           99.33311762953514        0.03365661051327       -2.82630755075060
N           99.51987955045836       -0.03132045958262       -1.46828227107039
C           98.11895961893084        0.25378012014558       -3.46287010104643
C           96.91595968915303        0.35509069523829       -2.77768830558238
C           95.65131322946085        0.55013870883157       -3.42000199273831
C           94.70611245471632        0.47788272407085       -2.45287727697047
N           96.74636777770000        0.17921901354218       -1.42297472229644
C           95.39387547926677        0.23386887406282       -1.22491409257090
C           94.73440963999927        0.00810379885791       -0.01416432625969
C           95.41414321349978       -0.21866509223878        1.18490636084285
C           94.74865896575793       -0.46399128943815        2.42471298254359
C           95.71132712879293       -0.53587873259746        3.37476323989846
C           96.96292658857384       -0.32794593913828        2.71143810624678
C           98.18425549891190       -0.27221687043577        3.37014933877525
C           98.19663030041754       -0.36220608893506        4.84901664749221
C           98.84994033378956       -1.41823175405142        5.48952605541346
C           98.86001346987725       -1.49736961000233        6.86995411898263
C           98.22106860429341       -0.52015070265246        7.63542530290938
C           98.26330242498929       -0.64623468350509        9.11216055220882
O           97.61503117712289        0.33758348577880        9.75355624852468
O           98.81975225969937       -1.53655511993037        9.70296782410101
C           97.56796659575984        0.53661665728919        7.00048160906821
C           97.55502974220511        0.61131151467401        5.61865312819892
C           99.39376272202982       -0.14068197921828        2.70023695625840
C          100.66630289713650       -0.05497659005449        3.35576817981588
C          101.60681027241463       -0.02762674665690        2.38315495252168
C          100.90816060796503       -0.07968598637369        1.13528366996198
N           99.55108171966442       -0.11786273951603        1.33716479173330
N           96.77050482368331       -0.16900661655352        1.35813021619211
C           98.10596950480193        0.37763587241461       -4.94084289097928
C           98.43020897989327       -0.72003678999965       -5.74150075673567
C           98.41463567007298       -0.60600753185695       -7.11949592749873
C           98.07990273830664        0.60864755236238       -7.72086027528776
C           98.07936082607064        0.68151400350608       -9.20175943262127
O           97.74727828844600        1.89017057399640       -9.67975604650288
O           98.34760239132167       -0.24146458703177       -9.92806356678567
C           97.75830699927427        1.70818489288699       -6.92467042729852
C           97.76935625308681        1.59047938993435       -5.54553017775758
H          102.62338175629583       -0.15534480307849       -0.10235211680229
H          102.61532514667157       -0.24817389844417       -2.68792278544984
H          100.70898522625390       -0.02228513862522       -4.58338816172010
H           95.51367641271962        0.70507274575736       -4.47755041945813
H           93.63611831181706        0.56810804864591       -2.54783559118170
H           93.68125447952227       -0.56413267287658        2.53727381941298
H           95.59542029717275       -0.72027525307771        4.43021170447012
H           99.33616257253152       -2.18438837330883        4.89645176501469
H           99.36115597581542       -2.31643498164657        7.37399917567655
H           97.68937687081670        0.18312656572158       10.70930165860358
H           97.07309536449804        1.29861772949470        7.59084554004796
H           97.05742600404810        1.43841023656729        5.12501060414320
H          100.80806684921910       -0.01824154157707        4.42357665303815
H          102.67932611195779        0.02610691854368        2.48101230432391
H           98.68036918768595       -1.66620590274348       -5.27535443954076
H           98.65985206247994       -1.45485845212430       -7.74828938186403
H           97.77052050829379        1.85426584625521      -10.64980519690515
H           97.50111536345051        2.65348220232908       -7.38765902846368
H           97.52887367505089        2.44694966577612       -4.92590158672747
C           58.76099477381982       -0.00495216822369       -0.05691332666610
C           57.53358658449020       -0.00774813899100       -0.05571527383149
C           56.18743825358803       -0.00948325995296       -0.04974149135726
C           54.96461674047133       -0.01009470648858       -0.04032614764026
C           60.10699154633829       -0.00131323348039       -0.05660472436272
C           61.32998736685633        0.00323571290316       -0.05385197521807
C           74.76069576175311        0.02957126694870        0.01095613237021
C           73.53263851128800        0.03009010494227        0.01163554438618
C           72.18784445014774        0.02902495123342        0.00961726054893
C           70.96425396383876        0.02928752908654        0.00621819992046
C           76.10548788587617        0.02939448116610        0.01011944357401
C           77.32907292839199        0.02940926568643        0.00569014669619
C           90.75907173465654        0.01796693002912        0.01314486537057
C           89.53156798941548        0.01964873929584        0.01748281622419
C           88.18573208972737        0.02253084841925        0.01780074416762
C           86.96261784351479        0.02455520184945        0.01582444058986
C           92.10505049704346        0.01497458358029        0.00603200874392
C           93.32797784236445        0.01166860580408       -0.00214896095912
Ni          66.14766867520065        0.01709983699970       -0.02383849621465
C           62.73561906972689        0.00747230185221       -0.04724012522556
C           63.41372633371361       -1.20462772051601       -0.20371815822797
C           62.75471724735351       -2.45345876702937       -0.41640683702169
C           63.71242094018451       -3.41122210467698       -0.37090026661330
C           64.95279901238209       -2.74304998382328       -0.11921481288281
N           64.76355059606790       -1.38125409708462       -0.06784189242856
C           66.15551390178558       -3.39701038939686        0.11747182226617
C           67.35515061504857       -2.72054393675552        0.29771085442372
C           68.59904198587408       -3.36000963099668        0.60109208833517
C           69.55245891055803       -2.39750578022023        0.56471271012596
N           67.53853496856668       -1.36651714547888        0.13264916113482
C           68.88728036831979       -1.17351471175211        0.25113144051954
C           69.55998211074844        0.02647290080388        0.00015139090460
C           68.88441611843207        1.22323000415290       -0.25817782932270
C           69.54740727354421        2.45113745383367       -0.56094499586895
C           68.58947691477302        3.40856660920414       -0.60992657809505
C           67.34477032748696        2.76207604184537       -0.32516929464394
C           66.13842554550091        3.43149630172529       -0.16443090088544
C           66.13280362460857        4.91090501764904       -0.22992375607067
C           66.88254550854690        5.66261710671849        0.67865096499072
C           66.87290175582940        7.04385246175153        0.61645174971349
C           66.11814514601437        7.69904029802028       -0.35838648323765
C           66.14211897434930        9.18139242007418       -0.38635378059568
O           65.37755433710407        9.71225833584344       -1.35228046011163
O           66.77853853673098        9.86555940128022        0.37397830055754
C           65.37026175512396        6.95293206369139       -1.26971872215258
C           65.37688409895162        5.57073731193690       -1.20225676271903
C           64.93590839490274        2.77074654983591        0.05410388436281
C           63.68823967177125        3.43199878193186        0.28713096283850
C           62.73544641369985        2.46875725792882        0.31995558575554
C           63.40450566963217        1.22361208517579        0.11748863026183
N           64.75506560353129        1.40794287691821        0.00034621330859
N           67.53311641782257        1.40892173729524       -0.15874081359339
C           66.15789234826566       -4.87664735170646        0.17862340910975
C           65.39157883831609       -5.54566115448616        1.13668946768912
C           65.39519015921886       -6.92719181851544        1.19201602419396
C           66.16003070026493       -7.66553283900315        0.28701728340549
C           66.12636125339128       -9.14505863589240        0.38257425972576
O           66.89415590368870       -9.75917543951859       -0.52981628521594
O           65.47941079284357       -9.75919151851262        1.19210748209454
C           66.92545485418492       -7.00230347228513       -0.67246099285795
C           66.92518063967354       -5.61928071047996       -0.72234514479416
H           61.69456168690512       -2.56711024650669       -0.57519152598705
H           63.59894591197311       -4.47542149062631       -0.49753653892315
H           68.71739747358048       -4.40940995709843        0.81606524004756
H           70.61334263776520       -2.49275188091475        0.73063329954338
H           70.61008830113911        2.55239258508752       -0.71107475262238
H           68.70550417535833        4.45890351756673       -0.82153735002563
H           67.45933406947908        5.15580123897211        1.44391435947121
H           67.44772579936958        7.63390236355874        1.32180740982302
H           65.44729008207220       10.67951318937338       -1.30330139591188
H           64.78621847943458        7.45733601989501       -2.03037069108619
H           64.80526296109343        4.99042292838992       -1.91773376817059
H           63.56694868835157        4.49559585630524        0.41175909066882
H           61.67249593139825        2.57651307054592        0.46358560899140
H           64.80608392846548       -4.97348144687394        1.84730232742588
H           64.80718124836957       -7.45310230264563        1.93614946873346
H           66.81728752297087      -10.71857795962976       -0.40138845811477
H           67.51789092647871       -7.57164683914361       -1.37881141763152
H           67.51013980646989       -5.10394813076873       -1.47575403974779
Ni          82.14535293403857        0.02700312236057       -0.00240572510415
C           78.73332259223228        0.02898091479937        0.00209246796585
C           79.40655303003793       -1.18796314621748       -0.14429763152713
C           78.74190146094305       -2.43611007102655       -0.34262110728562
C           79.69755019037257       -3.39627707935597       -0.30321238076929
C           80.94222756677974       -2.73040668905192       -0.06716940340979
N           80.75661823001971       -1.36735699563646       -0.02085091957485
C           82.14475475988941       -3.38553588236543        0.16482932681736
C           83.34605701980620       -2.71011822630673        0.34136965775193
C           84.58771583074713       -3.34981592122671        0.65297285611087
C           85.54313200693160       -2.38935526285572        0.61300868127713
N           83.53224813815095       -1.35827314006473        0.16681317728231
C           84.88164731931934       -1.16683689315695        0.28607798716712
C           85.55720332844997        0.02567429982678        0.01117256189504
C           84.88502798535343        1.21799404972918       -0.27254491930253
C           85.55003557954264        2.43795202893143       -0.60176413666663
C           84.59517877701940        3.39802949212037       -0.65963088063286
C           83.35044538655103        2.76123059089587       -0.35410838297036
C           82.14839894326659        3.43851607111987       -0.19026710739289
C           82.15195446633268        4.91740665939047       -0.26618050780590
C           82.91654318839208        5.66780002042512        0.63119905931081
C           82.91725081526086        7.04864944208994        0.56223002041208
C           82.15823251240276        7.70488149742004       -0.40858071832962
C           82.19472069397304        9.18688680131784       -0.44448960430876
O           81.42706002166608        9.71949509020596       -1.40688823984368
O           82.84355456348779        9.86909471310639        0.30704256850997
C           81.39539701238395        6.96018638224178       -1.30855540093449
C           81.39156318946590        5.57823180190499       -1.23419868070849
C           80.94517838301869        2.78606745713756        0.04627431816858
C           79.70182637855615        3.45490245462852        0.28082513089267
C           78.74573101972800        2.49577806830006        0.33320339774649
C           79.40851119381136        1.24557405198821        0.14167376652782
N           80.75830926303732        1.42296062212100        0.01124158427310
N           83.53464667342054        1.41059920189581       -0.16749997250802
C           82.14802415252406       -4.86519099958841        0.22471305884656
C           81.38618884221076       -5.53792770220968        1.18365984064008
C           81.39173725378768       -6.91967435387326        1.23473203795695
C           82.15421599647716       -7.65440518062774        0.32479614041231
C           82.12290132912297       -9.13417169309074        0.41583126992337
O           82.89196031147338       -9.74424099300182       -0.49811331559562
O           81.47654699477015       -9.75206199774646        1.22293786283048
C           82.91555516362035       -6.98736380445276       -0.63534170857760
C           82.91335076077989       -5.60427579121527       -0.68095485120522
H           77.67984825616524       -2.54770488343537       -0.48980238393413
H           79.57978869083382       -4.46072195820957       -0.42373155248211
H           84.70321818949238       -4.39790126585003        0.87582130031908
H           86.60333910184832       -2.48553196061771        0.78267973175151
H           86.61191322219229        2.53273962429548       -0.76152765883048
H           84.71335033814358        4.44417621220691       -0.89001234171745
H           83.49691917618574        5.16010126188246        1.39316832761832
H           83.50358222336396        7.63760314246137        1.25895643382577
H           81.50542293520714       10.68636039840385       -1.36327979944927
H           80.80782184784508        7.46549465439057       -2.06588178128493
H           80.80836012221428        4.99905295810295       -1.94118882695810
H           79.58546554056294        4.52043742424918        0.39290248876746
H           77.68439437071358        2.60938437630507        0.48403279424767
H           80.80280588899832       -4.96871513730159        1.89838268319388
H           80.80708406262663       -7.44855719134294        1.97941912039673
H           82.81653427479128      -10.70417112277603       -0.37279622844180
H           83.50632548401181       -7.55381898793036       -1.34543815491853
H           83.49544487952957       -5.08583112692708       -1.43448115843541
