138
 energy: -223.158924197643 gnorm: 0.000337294239 xtb: 6.5.1 (b24c23e)
Zn          16.30565774115349        0.00956801664704        0.00081869229014
C           12.89951071181776        0.11635988600810       -0.09759542773240
C           13.52312187892342        1.03231149176863        0.74141683528121
C           12.84279337741270        1.97810692831593        1.58035114349116
C           13.79703560852865        2.68257552271727        2.23938293901555
C           15.07335068444789        2.18329970165740        1.80181236555651
N           14.87146151450728        1.17798165922863        0.90161424242823
C           16.32078876882145        2.63990222365533        2.24747852437750
C           16.32759261845890        3.76835740316800        3.20963967730193
C           15.77601839957712        5.00526847401117        2.86473342066210
C           15.79020618781681        6.06003425156866        3.75799621387197
C           16.35219956569105        5.90644765023119        5.03109444521843
N           16.29218293607258        6.97599797906985        5.91402989987804
C           17.25332505396961        7.05963875399597        7.00581682882803
C           16.89044310323322        4.66686142896283        5.38737376613710
C           16.88296916403108        3.61951066494853        4.48156012504979
C           17.56124145726903        2.12079452339776        1.85900384947025
C           18.83925198240913        2.63020980607926        2.27223200379442
C           19.78850427515957        1.86740931817612        1.67151460258584
N           17.75920530379047        1.06836878292969        1.00460490581938
C           19.10149349962440        0.89150369688720        0.87851604942960
C           19.73642552058200       -0.09250309986640        0.09325862067494
C           19.08748481663746       -1.04160198381104       -0.72271889912923
C           19.75706421408345       -2.05835465647640       -1.47833610015819
C           18.79786145285960       -2.76498991952024       -2.12997130968132
C           17.53200781235100       -2.17858009716281       -1.78733748843474
N           17.74574914358507       -1.13887512069985       -0.92118986711909
C           16.28585435870264       -2.61902725225943       -2.24837308415702
C           16.27598796711171       -3.74430234163298       -3.21409791649749
C           16.91495893678171       -3.63160181801888       -4.45002294734297
C           16.90475563576344       -4.67535452420647       -5.35995639971860
C           16.26227546583874       -5.87565522714384       -5.04392374657826
N           16.18195374656732       -6.93636140678297       -5.93557584757026
C           17.20032627875159       -7.08581476790507       -6.96673652755133
C           15.61628668294524       -5.99268407362264       -3.80732087600790
C           15.62157965859518       -4.94124490865355       -2.91007487048266
C           15.04572734666789       -2.08425578595363       -1.87443688678200
C           13.76816321570030       -2.50048553390274       -2.38879391997816
C           12.82338056945243       -1.73780120452926       -1.78311110664939
C           13.51182552824619       -0.83797968132482       -0.90140662108931
N           14.85531591494026       -1.06894139836711       -0.98307703348995
H           11.81474384467355        0.15074012545250       -0.12922020946642
H           11.77089716271927        2.07572962353552        1.65511810837925
H           13.65288836978476        3.46355894944523        2.96880428988160
H           15.35325343494177        5.14444994773235        1.87562307396717
H           15.36594170294576        7.01744818721949        3.47405815450178
H           16.17094122828176        7.86383180993154        5.44133684483168
H           18.28356415800104        6.96093580241241        6.64481628033295
H           17.05395848777184        6.27792475598010        7.73996943921017
H           17.13164257173102        8.02965381827769        7.48801309950416
H           17.31401696613098        4.51150308835322        6.37209117257051
H           17.29624734667772        2.65993135145207        4.77316949359978
H           18.99087227455183        3.47367972695478        2.92648146908127
H           20.86048627068851        1.95753698377953        1.74800665936060
H           20.82438035750347       -2.21241365803257       -1.49579315620245
H           18.93400899683137       -3.61797315921945       -2.77524589622869
H           17.40897473059130       -2.70192078094092       -4.71129976791350
H           17.39553707871363       -4.54770587219995       -6.31703934497458
H           15.96722746455301       -7.81424198772406       -5.47810437918031
H           17.09910768117873       -6.29390523638461       -7.70997920967188
H           17.04412572604188       -8.04640898407484       -7.45760569787097
H           18.21068523060274       -7.05535711074140       -6.54300914588574
H           15.11083050408194       -6.91904513616369       -3.55498778858664
H           15.13216919371128       -5.05302551925423       -1.94862667418622
H           13.61758281706808       -3.26906428114594       -3.12997056561566
H           11.75373537253235       -1.76697113330263       -1.92128032202919
Zn          32.33970237625865       -0.00254390696409       -0.00982641738577
C           35.74571318944970        0.06715504750519       -0.13384523069702
C           35.12153638255251       -0.95069015163909       -0.84532420257318
C           35.80135479272666       -1.97609842493659       -1.58529345524633
C           34.84670527245773       -2.77198278125117       -2.12970884828876
C           33.57064910235645       -2.23514697126440       -1.73830477052048
N           33.77309003569911       -1.13764541646997       -0.95324097344210
C           32.32296164616609       -2.76907846973237       -2.08682693619105
C           32.31595577276280       -3.95419563457989       -2.97828539345922
C           32.86814515043432       -3.88735367701554       -4.26040462809864
C           32.85510090553544       -4.98933899164133       -5.09469772758893
C           32.29371451164520       -6.19859976950120       -4.66714694278958
N           32.35585660686230       -7.29379805879321       -5.51784051992980
C           31.39741501410091       -8.37981462461107       -5.36098119823811
C           31.75426162725457       -6.27576937665410       -3.38019842050753
C           31.76060635034041       -5.16311496383098       -2.55586112083000
C           31.08279937264984       -2.27631253670226       -1.66464483089472
C           29.80447494013579       -2.79061505663139       -2.07074430421534
C           28.85571717988491       -2.03772954084189       -1.45688569408353
N           30.88550722058928       -1.21263439046862       -0.82411593081900
C           29.54336200684241       -1.05072761066445       -0.67829250795177
C           28.90900742676956       -0.06935221352456        0.11075560428405
C           29.55840207411764        0.93414980562755        0.85836543005945
C           28.88930927232175        1.89351630990551        1.68599682803370
C           29.84884663568040        2.68352950415150        2.23298091980764
C           31.11447651137644        2.22094378458542        1.73507023290824
N           30.90022525641072        1.14881903574249        0.90952689337855
C           32.36089666363180        2.76650597550277        2.06435637070163
C           32.37080918439212        3.95461669958716        2.95159457386680
C           31.73032484593156        5.13552115900771        2.57232882965931
C           31.73897820823015        6.25103993449227        3.39271146924914
C           32.38145095658017        6.20498558923464        4.63304979490727
N           32.45955623868513        7.30619679296159        5.47454506344452
C           31.43927689969944        8.34330525334256        5.39542433126231
C           33.02959463628669        5.02468479111741        5.01640175743290
C           33.02574066318610        3.91983073963390        4.18579355446269
C           33.60081136605368        2.28381512984722        1.62460620999642
C           34.87884658992730        2.87531009067062        1.91914302987972
C           35.82318272081758        2.11659579927023        1.30780444475402
C           35.13400688162633        1.06043545648166        0.62180732940901
N           33.79053984132677        1.19202004650863        0.82856841202433
H           36.83053017494198        0.08935269756205       -0.17359416989545
H           36.87320226711442       -2.07125740296981       -1.66378683630235
H           34.99042566603087       -3.65413419790817       -2.73296855924778
H           33.29070348473375       -2.95228107805324       -4.61186164267917
H           33.28005163856955       -4.92108549134361       -6.09069811480505
H           32.47710254765558       -7.02653796177356       -6.48749391079314
H           30.36618039372787       -8.00871699401417       -5.34465543850507
H           31.59746925870153       -8.92428562250144       -4.43723717828805
H           31.52160596852135       -9.06254209730462       -6.20164236722550
H           31.33073476132231       -7.20296174261779       -3.01391875121812
H           31.34660237255983       -5.23845342207348       -1.55608454879977
H           29.65229320372464       -3.61330123252851       -2.75080746662228
H           27.78368076932817       -2.13195152268515       -1.52741609668703
H           27.82205636541704        1.94436913533734        1.83292831832614
H           29.71302432345391        3.49932144321270        2.92474600790353
H           31.23611121723824        5.18726245141999        1.60811772913609
H           31.24671000684848        7.15652398343307        3.05964846749864
H           32.67295853621833        7.05047265750939        6.43123767974849
H           31.53982354858262        8.89632300562887        4.46066893044132
H           31.59396481539858        9.03194989071116        6.22606157165878
H           30.42968042651158        7.92126547753597        5.45769629403301
H           33.53540086390159        4.98105116552923        5.97534290611053
H           33.51653636586379        3.00660882751248        4.50445223145951
H           35.03009520450064        3.76635429679529        2.50727009213869
H           36.89299144206831        2.25657727301646        1.30679972080743
C           24.93696777732320       -0.12587718317365        0.16763714126555
C           23.70844016455255       -0.13533539977324        0.16017653312290
C           22.36450425102548       -0.13354071612539        0.14438702412093
C           21.14057072793484       -0.12266806747782        0.12169861293808
C           26.28090404886172       -0.11075259348212        0.16177878752465
C           27.50489500662856       -0.09114562931810        0.14755980484056
