250
 energy: -419.819111634359 gnorm: 0.000305372417 xtb: 6.5.1 (b24c23e)
Zn          47.46433433110783        0.02494341021802        0.03606354212440
C           44.05617780866198        0.09638969208376        0.09212441825098
C           44.68983995080561        1.21916350924146       -0.42722144937098
C           44.01960855111180        2.36877490031790       -0.96620539859245
C           44.98170158331470        3.23627567370137       -1.36983522855563
C           46.25271588609480        2.63237261432952       -1.07007289134551
N           46.03994538427242        1.40687022906186       -0.50875885364715
C           47.50571530870560        3.20150906180568       -1.33242400654368
C           47.52483030310854        4.56030323486281       -1.92716516465953
C           48.11296747310671        4.78204666493547       -3.17480262034247
C           48.13018019771103        6.04607037817737       -3.73755793336998
C           47.56872427983141        7.12604905868812       -3.05199481408649
N           47.54896201643283        8.38533883966751       -3.62907291048742
C           46.97490063110921        6.91266042153273       -1.80565429130125
C           46.95416313086229        5.64339868501702       -1.25449111505831
C           48.74194863129735        2.59446587233967       -1.08151342167437
C           50.02405497003731        3.20701260754237       -1.29236878035314
C           50.96675360926611        2.30247502645265       -0.92191799352239
N           48.93054049350728        1.33649784205708       -0.57314937362292
C           50.27142522407467        1.13282129633583       -0.47305449709204
C           50.89752405116368       -0.04195890584112       -0.00849806048950
C           50.23851463578237       -1.19404209364257        0.46707883702385
C           50.89917933835167       -2.39260957540632        0.89118616824766
C           49.93183981826126       -3.26222230800639        1.28137822986514
C           48.66965675077989       -2.59819949710522        1.10966937723455
N           48.89382945217529       -1.34588482945233        0.60167127189848
C           47.41772352821766       -3.15497431245228        1.39677165025944
C           47.39765462178713       -4.51674420769018        1.98440733670602
C           48.01755557695003       -4.77269113882468        3.20992101612450
C           47.99649514019459       -6.03970198742036        3.76582630860117
C           47.36301894991149       -7.08881573450841        3.09526556079299
N           47.30491626076584       -8.34925976233862        3.66716643756514
C           46.73734236949460       -6.84107044100479        1.87106063950172
C           46.75568959902805       -5.56883883368130        1.32682219159636
C           46.18183749002757       -2.53226032799446        1.17791170288639
C           44.89734128376580       -3.08214335597486        1.52108359220681
C           43.95968972448345       -2.17364350554076        1.15157165127707
C           44.65921225616616       -1.05265844126169        0.59007102682972
N           46.00216752290096       -1.29757777560537        0.62526185827432
H           42.97080471946321        0.11927327142664        0.11060378922985
H           42.94874877475786        2.48309711689630       -1.03173573202303
H           44.84615669888068        4.19653593033562       -1.84131167818373
H           48.54334298919161        3.94716635610209       -3.71715561267012
H           48.58024114722038        6.20297013831361       -4.71184060267807
H           48.25895004248843        8.54255959059033       -4.32658774588402
H           47.44476324938023        9.14760183360056       -2.97838030329762
H           46.53423855659687        7.74667598486241       -1.27022407028283
H           46.50771384587560        5.48978206509876       -0.27800819356022
H           50.18226952600872        4.20741566780179       -1.66207651037175
H           52.03930603391321        2.41408940079011       -0.94123626568343
H           51.96667099186413       -2.54614017066373        0.88039812427338
H           50.06045698536490       -4.27073762356490        1.64036933542082
H           48.50345353193124       -3.96155233886655        3.74127067413315
H           48.47200458128004       -6.22289172130550        4.72328359510527
H           48.03033504629872       -8.54330550096018        4.33905465667108
H           47.14307590123171       -9.10200281060119        3.01714914899490
H           46.24086399258945       -7.65083454667207        1.34738035065491
H           46.28343835225803       -5.38906089097757        0.36708649409003
H           44.73736795455658       -4.03639835260730        1.99706961117261
H           42.88785622200012       -2.24233553719880        1.25429591790004
Zn          87.89878130693776       -0.02416667053758        0.05509741900327
C           91.30668318059749       -0.01278790752081        0.15299753623619
C           90.67313538767260       -1.06917115697167        0.79679945980443
C           91.34354396128644       -2.15383944838501        1.45664642309040
C           90.38158852130815       -2.97443838195218        1.94890161686607
C           89.11040792372296       -2.39402017172017        1.60642181075607
N           89.32304034603646       -1.24535357071478        0.90111793338921
C           87.85766055031335       -2.93454216680894        1.92455315526765
C           87.83950184462718       -4.18328065327613        2.72513945516183
C           87.26286983237280       -5.34870980327236        2.21451220880320
C           87.24702472815045       -6.51712340593729        2.95580096868117
C           87.79821344729598       -6.54039464472183        4.23925424521150
N           87.81965547608070       -7.71780896778477        4.96897178540141
C           88.38054706192953       -5.38054229784457        4.75613851654690
C           88.40001523815970       -4.21895640623167        4.00417803647010
C           86.62152587300903       -2.39375474152460        1.55161699262370
C           85.33908023940543       -2.91746329896486        1.93191395416417
C           84.39656180296681       -2.10595033031010        1.38692691575601
N           86.43315599787030       -1.26759142997876        0.79478448880772
C           85.09221057203975       -1.07403542996849        0.67665179134908
C           84.46609338585185       -0.02412924473718       -0.02562023702071
C           85.12428591464700        1.02060530006720       -0.70570582801987
C           84.46286210896852        2.04633533616934       -1.45634540873585
C           85.43012669580941        2.85343789590236       -1.96339758902149
C           86.69309515220877        2.33511493855262       -1.51627765236144
N           86.46928159330693        1.21373533496891       -0.76193522046368
C           87.94538475649037        2.87946427022787       -1.82475019029636
C           87.96683244224087        4.12324589919880       -2.63277809124040
C           87.35421779699494        5.28841556559710       -2.16525868286678
C           87.37687740599331        6.45225608410649       -2.91352477840811
C           88.00471630704483        6.47122138382288       -4.16133061890310
N           88.06447641615303        7.64456423317900       -4.89544699450686
C           88.62343589024378        5.31169334834174       -4.63481753626788
C           88.60348783577371        4.15471287842681       -3.87584626454719
C           89.18125133713919        2.34863811472561       -1.43236532240570
C           90.46590163644642        2.93857547574506       -1.70027089465495
C           91.40342206308637        2.12715016455391       -1.14917976070821
C           90.70374534433670        1.03817225745139       -0.52803888939561
N           89.36080799824576        1.20338294412377       -0.71247533615344
H           92.39197171489533       -0.00832878610977        0.18511721531268
H           92.41446656445508       -2.26837099426930        1.52074934008619
H           90.51730740763814       -3.89947770572864        2.48616311419958
H           86.84056248028440       -5.34115714714781        1.21550477319006
H           86.80596238313365       -7.41824357601909        2.54364740281171
H           87.11577404199159       -8.39019276762039        4.70862106610876
H           87.91537297287205       -7.59687519569913        5.96473169866408
H           88.81322897340331       -5.39339446235749        5.75066724132292
H           88.83747302091601       -3.31782789670527        4.42016360135628
H           85.18039873425951       -3.78631640630603        2.55030721743008
H           83.32387455789001       -2.18846596089855        1.46253535845099
H           83.39494383870220        2.12658096851477       -1.58420796412092
H           85.30084669421832        3.71617197517158       -2.59703723211948
H           86.87286792795861        5.28465086411157       -1.19332380569322
H           86.90697448427564        7.35328731046143       -2.53440722875041
H           87.34269240927267        8.31461646647949       -4.68234634781171
H           88.22106144527470        7.51851287393507       -5.88284563955581
H           89.11572401986487        5.32120889851524       -5.60125725433504
H           89.07040283166717        3.25375687986789       -4.25887508641764
H           90.62592212090622        3.86386149197563       -2.23036584256335
H           92.47527535748375        2.25057058586824       -1.14929048752897
C           53.52507651941826       -0.07691752971435       -0.02209725329582
C           52.30257551801626       -0.06446614975815       -0.01834656767607
C           54.87417712057368       -0.08526004571864       -0.02457256408388
C           56.09685815424862       -0.08669619204145       -0.02335000118489
C           67.00727232834703       -0.03065173975422        0.02784740588924
C           65.78442913297933       -0.03289976335504        0.03370277261390
C           68.35593736617147       -0.02663608470882        0.02042550182291
C           69.57877538167499       -0.02441533168835        0.01394400995199
C           80.48882999665443       -0.00984400434725       -0.04738113419217
C           79.26632597758065       -0.00872864784309       -0.03687694876912
C           81.83819876694803       -0.01352723822448       -0.04911401407925
C           83.06063554677499       -0.01801321939645       -0.04525432950264
Zn          60.94094283561117       -0.05749975367877        0.01621373974534
C           57.50161048036323       -0.08304690835636       -0.02381861094287
C           58.14062712779540        1.12293171453856       -0.37852172460004
C           57.45708837146343        2.33830625649093       -0.70596864428407
C           58.40936687226061        3.27308496280903       -0.95961733541811
C           59.68448492379135        2.63306524114950       -0.79990775370149
N           59.48372412491901        1.32692009877675       -0.43941637338977
C           60.92768579958420        3.25732556301030       -0.95684147012250
C           60.92279030457525        4.68353300056798       -1.36609825862274
C           60.36295027297307        5.07517684453033       -2.58437107979347
C           60.36031514952209        6.40431329329090       -2.96967030752178
C           60.90761536429478        7.37841699765813       -2.13098117200696
N           60.94215076543433        8.70431010202756       -2.53005056675707
C           61.47316033278658        6.99471196544057       -0.91251791102250
C           61.48016574623351        5.66216814942405       -0.53965097476939
C           62.17562883451787        2.65471121981178       -0.75990563202448
C           63.44551790575532        3.28758514880439       -0.97949489636769
C           64.40522554971993        2.36882001951116       -0.69748886270808
N           62.38695156264032        1.36139500409821       -0.36096685659090
C           63.73151061046094        1.16503953974821       -0.31177651403679
C           64.38006448395761       -0.03585668415361        0.04302522608184
C           63.74088341593484       -1.24273298726739        0.39457609430076
C           64.42395855640770       -2.46007002138646        0.71569213255047
C           63.47154249952711       -3.39064844252954        0.98341825959041
C           62.19679854179724       -2.74656495514315        0.83661648514603
N           62.39791297558081       -1.44233738343633        0.46918188394803
C           60.95363619897267       -3.36551708533617        1.01284262022526
C           60.96026864299225       -4.78358682747638        1.44881667337477
C           60.39049619660369       -5.77887317484470        0.65137170389864
C           60.39813394902957       -7.10265126988487        1.05453823182908
C           60.96640539454198       -7.45897334779045        2.28000933062455
N           61.01089342479263       -8.78745911782552        2.66922487835018
C           61.54229358224800       -6.47039421263547        3.08173994565649
C           61.53856661995783       -5.15048746911922        2.66637153577098
C           59.70532058580891       -2.76316201632054        0.81524768800116
C           58.43528103276866       -3.39192785587255        1.04503956583379
C           57.47569807305658       -2.47714960930447        0.74928324058384
C           58.14969921312849       -1.27899686931063        0.34740848042172
N           59.49434878484040       -1.47521065384292        0.39955812340475
H           56.38545135730823        2.45775511869857       -0.72793430412940
H           58.26089396460900        4.30929850055559       -1.21784947793668
H           59.94382202812120        4.32390576217959       -3.24494872888032
H           59.93262790833769        6.69452450622349       -3.92325521056759
H           60.25024528690507        8.95892566781903       -3.21683273822299
H           61.03408245057689        9.37070646565531       -1.77992860855995
H           61.90297014588830        7.74595836838176       -0.25881257826642
H           61.90570543205479        5.37419951084060        0.41550491268526
H           63.58525263419042        4.30037017599197       -1.32164921449081
H           65.47582141314793        2.48720145037835       -0.75153791256999
H           65.49535303992674       -2.58302412034184        0.72516824546152
H           63.61930315629775       -4.42686650602961        1.24174254403282
H           59.95542682016279       -5.51175601265765       -0.30555338108921
H           59.96237846170449       -7.86780764113622        0.42126464658633
H           61.11999755327763       -8.93575627017254        3.65981517446047
H           60.31310534073476       -9.37757956759038        2.24488730495796
H           61.98856272132053       -6.74142217879678        4.03240313851057
H           61.97205338064644       -4.38635289801909        3.30242320051467
H           58.29486277649158       -4.39962435271830        1.40179554347360
H           56.40504547311256       -2.59454043822583        0.80483746133861
Zn          74.42170016192773       -0.01275724585832       -0.00036264589113
C           70.98312828385507       -0.02345102921574        0.00041838046530
C           71.62293365256447        1.18278379697845       -0.35221417313497
C           70.94081387305793        2.40456031564097       -0.65831281350609
C           71.89382692508148        3.33571404167647       -0.92181923070702
C           73.16785267795399        2.68683628571264       -0.79077290845171
N           72.96581330937545        1.37947596924352       -0.43467087143669
C           74.41165941273971        3.30267063381334       -0.97228402391113
C           74.40920039639599        4.73007594135054       -1.37689207218726
C           73.82077835334476        5.13165456290390       -2.57840391324428
C           73.82204737370306        6.46193710282884       -2.95971982372806
C           74.41315228440521        7.42582455738070       -2.13916426158419
N           74.37376661176135        8.76424887272660       -2.49357102281869
C           74.99215091401811        7.03449894976455       -0.92945008333329
C           74.99487496210510        5.70082152045099       -0.56065858129389
C           75.65930239687846        2.69031541189323       -0.80305425749078
C           76.92873062332680        3.31381476195089       -1.05015181205849
C           77.88789801206391        2.39007752745070       -0.78236955956966
N           75.86980507901698        1.39710168287925       -0.40437802860963
C           77.21402675801014        1.19266384507880       -0.37788221940681
C           77.86140328844942       -0.00678084086917       -0.01751319781824
C           77.22184089942050       -1.20701714663436        0.35439407765148
C           77.90380399177208       -2.42400573502530        0.67909766761808
C           76.95062068459039       -3.35025726337566        0.95922499657407
C           75.67668543843344       -2.70364867828507        0.81698279390830
N           75.87874981593427       -1.40242729175346        0.44045241371643
C           74.43286210037144       -3.31896277143862        1.00297763038507
C           74.43809660989972       -4.73546875372085        1.44403086310761
C           73.85722060078703       -5.73176071972588        0.65587938406639
C           73.86214789700666       -7.05374279914027        1.06493176758852
C           74.44982929450546       -7.40891383063897        2.28153831985663
N           74.41274980508928       -8.72292597882251        2.71807076212209
C           75.02258927417826       -6.41706744612830        3.08142578322080
C           75.02126431535596       -5.09897163151613        2.66027488145372
C           73.18514318317592       -2.71364777368136        0.81243062963328
C           71.91484253986700       -3.33836435498317        1.05215223962107
C           70.95606727417947       -2.42045282079816        0.76434551632648
C           71.63074763109886       -1.22400212122116        0.35817058908282
N           72.97498114961648       -1.42480995540840        0.39827346171850
H           69.86967955521430        2.53017566196026       -0.65978318476386
H           71.74689124321183        4.37485526339828       -1.16859837608921
H           73.37552311651253        4.38709701203200       -3.22938484779474
H           73.36777340776588        6.76027524332403       -3.89838282031099
H           74.25721066614884        8.93863637910130       -3.47911933996525
H           75.07964078868791        9.33844794896639       -2.06068404694782
H           75.44022529643347        7.78017334561503       -0.28163027273259
H           75.43908995126786        5.40590293029609        0.38387746219798
H           77.06835926878925        4.32429279200616       -1.39931564087922
H           78.95803381651849        2.50147401959825       -0.85700286824315
H           78.97490127558673       -2.55005944724511        0.68173890251194
H           77.09735027378409       -4.38528404295819        1.22313055013501
H           73.41461255811721       -5.46686964809775       -0.29819857791569
H           73.41305076079345       -7.81895025651261        0.44111580700825
H           75.11743996285854       -8.96440824487140        3.39656839532288
H           74.29990395069828       -9.40891183120768        1.98875742091919
H           75.46845134830347       -6.68474589725897        4.03323724649167
H           75.45972268517426       -4.33343208348678        3.29120357113909
H           71.77383268464735       -4.34538215977447        1.41036479167102
H           69.88556964145775       -2.53425320636841        0.82891982722217
