185
 energy: -316.618482082048 gnorm: 0.000463489199 xtb: 6.5.1 (b24c23e)
Co          25.36794670021098        0.22673051893835        0.11860472959953
C           21.99636343227192        0.21427115680965        0.06884325239595
C           22.65368811965290       -0.97424132063387        0.30628533587841
C           21.99376033056963       -2.21476126028438        0.57848505248567
C           22.95110039717962       -3.17241026448710        0.57663052981534
C           24.19259439142976       -2.51771738058861        0.28171916312442
N           24.00802472157573       -1.16107671025196        0.18976262707517
C           25.37873243323864       -3.17943908456298       -0.00575863085897
C           25.39172876126558       -4.65892462685919       -0.05843560700335
C           24.60050306209703       -5.34103858540360       -0.90245379478369
C           24.58651073432388       -6.84451402254887       -0.97062527281672
N           25.72830314623569       -7.42239010484249       -0.25992045449424
C           26.40226953198598       -6.71845809457078        0.69786619666838
C           26.30084470545279       -5.38102938795785        0.81663531594316
C           26.55617653241547       -2.48925522837573       -0.25832919671395
C           27.78849872458830       -3.11277973203629       -0.63670966392985
C           28.73717663121499       -2.14536146572262       -0.62309604396914
N           26.73802309899956       -1.13768855768073       -0.08054969437349
C           28.08111992652832       -0.93488812378549       -0.24154471608320
C           28.75850599073763        0.24322510186619        0.07731860293334
C           28.07829586599717        1.40974886418649        0.43320216421846
C           28.73099002279983        2.61461610468786        0.83749888223806
C           27.77035183190510        3.56634107675447        0.92343350599035
C           26.53535314505744        2.94175844036358        0.55537965738443
N           26.72886705348285        1.59967966867498        0.32139392685462
C           25.34837671241817        3.62780654758897        0.34149248286779
C           25.33901498791667        5.10358822114676        0.45966005186528
C           24.53411016567114        5.73276669514108        1.33140231504049
C           24.49372682835136        7.23098586654466        1.46875368746912
N           25.62276600949919        7.86166804919847        0.78273720135183
C           26.30901085890255        7.21343818923217       -0.20522558206001
C           26.23409309379272        5.88070581806572       -0.38208498696753
C           24.17257207410362        2.96622191397369        0.01246493189634
C           22.93488048184198        3.62084541235066       -0.29747751529076
C           21.98983503817393        2.65453262798816       -0.37930754413000
C           22.65208452848884        1.41084132689149       -0.12709920953297
N           23.99958923829167        1.60604337656690        0.04645953232739
H           20.91287599058951        0.20957319781076        0.04676429505081
H           20.93309775674581       -2.31943025668327        0.74412632988643
H           22.83936154354990       -4.23002725976642        0.75317165311764
H           23.91968087555835       -4.83683474795417       -1.57828735252699
H           24.63119516841504       -7.17666853213274       -2.01743925657856
H           23.64343966925126       -7.23629509497919       -0.54662753636770
H           25.69180875849911       -8.42496398715543       -0.15229963398552
H           27.07892698293588       -7.31024273761269        1.30594857294141
H           26.87584745396869       -4.83781975446310        1.55294446050738
H           27.90201268949099       -4.15766110427430       -0.87622540142988
H           29.79053977386369       -2.22894823682131       -0.83762806878882
H           29.78943893044224        2.70522979500295        1.02188629824021
H           27.87819432320356        4.60204055850433        1.20219404572327
H           23.86018290996973        5.18626755502544        1.98078651232348
H           24.53574577055013        7.51538099162547        2.52969822874672
H           23.54251389429044        7.62488281491416        1.06551427499873
H           25.56540426163743        8.86695616351924        0.71786286224359
H           26.97272092297503        7.84446516543692       -0.78758865664971
H           26.81772114655155        5.38205898866524       -1.14271892748447
H           22.81806095843150        4.68402881727963       -0.43257679791652
H           20.93505367623941        2.75565349314200       -0.58077730671713
Co          57.18853258994736        0.13062073956475        0.10874817977753
C           60.55144955956208        0.32549846326171        0.07314247680206
C           59.83619354864970        1.40409149750017        0.54931752619420
C           60.43053700445771        2.59414418091810        1.07750765034147
C           59.42512735064261        3.48333548517776        1.25835690832157
C           58.21975723335087        2.84223904258945        0.81920721702220
N           58.47417543531844        1.54304570868823        0.45845718366624
C           57.00294328512407        3.48857714841037        0.64582444032347
C           56.91134841101211        4.94613793774632        0.88615255385868
C           57.68170753257151        5.82157607943758        0.21977881925155
C           57.61624505376000        7.30678513212463        0.45503387164085
N           56.42265512857472        7.67435219062319        1.21874024368961
C           55.77008758509353        6.76133240078647        1.99923010912046
C           55.94552498807016        5.43402686887434        1.85755396317241
C           55.86575969518412        2.80195448021730        0.24263498040822
C           54.60428087119724        3.42104919320332       -0.03244978262482
C           53.70657983097867        2.42079376662891       -0.20598800349745
N           55.75338672414361        1.43343354766008        0.16510257481976
C           54.42258171466869        1.19521544827882       -0.04142544846951
C           53.80662350586121       -0.05302691448537        0.07644779738536
C           54.54828579435880       -1.22741221822315        0.21615883593643
C           53.96508161793150       -2.51950711902630        0.39339115879875
C           54.97230304268100       -3.41903921226841        0.27879995058683
C           56.16647085732922       -2.67250354653312        0.01831997525844
N           55.90239978649976       -1.32282548735922        0.05037076519011
C           57.38077881255070       -3.23875714572599       -0.34382159671786
C           57.46942926841029       -4.70608650714981       -0.51784385994527
C           58.33280108774573       -5.44538061392917        0.19777793756363
C           58.45804015591694       -6.93647823118795        0.03724200885150
N           57.34565813371811       -7.48619974212725       -0.73956981078795
C           56.59528345911908       -6.69859700102988       -1.56648423255126
C           56.59184078449957       -5.35496650520634       -1.47810477575794
C           58.51450124430808       -2.46272546304880       -0.54851811177720
C           59.77779444260366       -2.97362256777431       -0.99561859026240
C           60.67279762121145       -1.96391816166118       -0.87974169053462
C           59.95443527123320       -0.83513252905319       -0.37103342788614
N           58.62080226049762       -1.13121806462890       -0.23736847033408
H           61.63316269585331        0.38917552957674        0.05682497042331
H           61.48394396955658        2.71587256968265        1.27477064567447
H           59.48214113782061        4.48674118757854        1.64844138320471
H           58.40229614515949        5.49737099983023       -0.52191385534315
H           57.58610639189147        7.84148643096511       -0.50464805166430
H           58.52300178846728        7.64835723260505        0.98797540260638
H           56.40160773938142        8.63571541031731        1.52473298156566
H           55.04707761270400        7.18577304240095        2.68839849243342
H           55.38702687634877        4.72747512511748        2.45485007837559
H           54.43742906198996        4.48499283218946       -0.07984175579695
H           52.65099770563347        2.49035673639672       -0.41426206789015
H           52.91673564943191       -2.69784775960843        0.57196025253048
H           54.92144371691980       -4.49321491391085        0.35404095273452
H           58.99590088640497       -4.99757762318577        0.92876252213398
H           58.46225488840248       -7.42465968197066        1.02211182291499
H           59.41724985255451       -7.18725278505873       -0.45226695242139
H           57.45639446259241       -8.45378744105065       -1.00343951406839
H           55.94980630130514       -7.24158130130512       -2.24940118470365
H           55.95914882604022       -4.75265140572603       -2.11429770211617
H           59.94488766949929       -3.97797671894669       -1.35005396395742
H           61.72789416815630       -1.96685391258399       -1.10367228735429
C           33.95880030779372        0.33515578187494        0.10831093537954
C           32.73177757142748        0.29822002355180        0.07545509798825
C           31.38660398431852        0.27218186200207        0.05860014924437
C           30.16342719880727        0.25264547126175        0.06182346597444
C           35.30152023536916        0.39225986801957        0.16904008390978
C           36.52086197548928        0.45813382256490        0.24742917180856
C           49.83476113512643       -0.11528539702676        0.12050138003257
C           48.60847182972515       -0.06274027069365        0.16092929629313
C           47.26797943758302        0.03437269561854        0.21913796082879
C           46.05239761235335        0.15917972116274        0.28429891609775
C           51.17987236091351       -0.13031331254765        0.09189549514493
C           52.40310219438430       -0.11490115341053        0.07634933208902
Co          41.29718799330843        0.69693627613713        0.55258539084710
C           37.91757088421143        0.54881469266201        0.35728721215247
C           38.59424559963209        1.53634986667531       -0.36678927271358
C           37.94061576095915        2.56014068366264       -1.11747594948530
C           38.91627988739774        3.28617407833388       -1.71687593244893
C           40.16119878830885        2.66912861735716       -1.37002162501124
N           39.95009246385797        1.63576108391303       -0.48457889826436
C           41.37362904891869        2.95147390797295       -1.98152806794849
C           41.44275410343900        3.98844262150411       -3.03501038111243
C           40.70429041151142        3.91504248647532       -4.15456654184332
C           40.80359946899844        4.92979027884261       -5.26099097713722
N           41.51884923698926        6.12964703965332       -4.82308229472328
C           42.36893277668404        6.09964094520908       -3.75315507046332
C           42.35611164384079        5.10374692505510       -2.84736643575652
C           42.52949969816618        2.24001625520516       -1.68062372054347
C           43.74534922509133        2.32926044464241       -2.43023395622348
C           44.64919671008366        1.53403260329391       -1.80695373443696
N           42.67897943958587        1.37401885960478       -0.62633777679048
C           43.99040917079260        0.98546877082586       -0.66366726476940
C           44.66234641212743        0.33489969503089        0.37336869713396
C           44.00305017158636       -0.04378247449781        1.54765325040012
C           44.67477922311848       -0.47913646681262        2.73004562730344
C           43.71181665057455       -0.78812871689700        3.63318620754399
C           42.45367984457065       -0.59050902239540        2.97836408804141
N           42.64949459935335       -0.06845789104360        1.71911189309949
C           41.23449112038436       -1.03379746258702        3.46958435333564
C           41.17059940018306       -1.70959588994541        4.78479595017236
C           41.86830837325219       -2.82625156411373        5.04922039846246
C           41.81745096064805       -3.52314049424313        6.38222001313751
N           40.72830982308315       -3.01060104491737        7.21509273468264
C           40.14423239398746       -1.80137585369731        6.96960342394168
C           40.29746629279434       -1.14780518322319        5.80214500483267
C           40.06157267117649       -0.91591748320186        2.73248658341500
C           38.82884146470592       -1.55524052735136        3.07901623660445
C           37.91530089925873       -1.17284650348634        2.15352144544054
C           38.58510225819369       -0.27593330602870        1.26496458643971
N           39.91038858298608       -0.17113799441224        1.58983491515713
H           36.87258616546796        2.70240175410589       -1.15837260693905
H           38.81130073695953        4.15304033275044       -2.34874309282805
H           40.04872818166340        3.07467621690052       -4.35077700851094
H           41.31111521117798        4.48843336415678       -6.13879840604636
H           39.79855316726036        5.23093959319236       -5.58826676876588
H           41.73928897607692        6.77846534943022       -5.56396178350446
H           42.99958609374973        6.97670489851363       -3.64898940791634
H           42.99009340177525        5.13178633530845       -1.97264722835091
H           43.87562667135868        2.91775354228526       -3.32416615324546
H           45.67821702078749        1.34717529695616       -2.06903610445030
H           45.74595217430829       -0.52091362026581        2.84599110081763
H           43.83434271165083       -1.13092053059076        4.64766588633186
H           42.51160186571793       -3.28598708704771        4.30816699713234
H           42.78070943297764       -3.40254050198242        6.91095429662023
H           41.66197863985684       -4.60220525792608        6.23948852557338
H           40.73993105648535       -3.33309793829386        8.17084990485538
H           39.49410176208104       -1.44117599199875        7.76043525719980
H           39.78960217778219       -0.21334788604587        5.61082142479229
H           38.69413163692053       -2.21838189867304        3.91821317819759
H           36.87315161825178       -1.44004202635590        2.08283026789464
