203
 energy: -413.248822723778 gnorm: 0.000727420353 xtb: 6.5.1 (b24c23e)
Co          31.52609325935220        0.09027676442464        0.02663439519778
C           28.15953098205882        0.21470898324744        0.07476910841776
C           28.81023232961596       -0.36329532830724        1.14405384380654
C           28.14733243159417       -0.95312712822569        2.26723402408190
C           29.10476578234784       -1.22557214599219        3.18488589247292
C           30.35026410983426       -0.78372707736873        2.62784776251199
N           30.16698052778897       -0.32699745763266        1.34785992329542
C           31.54218998937679       -0.69949599120338        3.33565336925974
C           31.55364431540495       -1.04736788088531        4.77411434073167
C           30.73445267103595       -0.36025136461800        5.67367017643181
C           30.74645688742085       -0.68042235796554        7.02114528545467
C           31.58078242371153       -1.69752968410032        7.45575882726462
S           31.60624559936203       -2.10273343948404        9.16141446040626
O           31.16597083179285       -0.99470756395826        9.95730970279733
O           30.42494650344346       -3.21741949336966        9.15546484869351
O           32.83648161927916       -2.74962982307829        9.51024693531290
C           32.40571901982423       -2.39551608428482        6.58876295785696
C           32.38975944675214       -2.06347273301922        5.24423735135302
C           32.72295932520095       -0.28679835594818        2.73470789564173
C           33.96193430198250       -0.09714843037984        3.42743072097383
C           34.90888959137838        0.11851888938720        2.48236989810484
N           32.90023941743911       -0.11514958368226        1.38183062248800
C           34.24554590347962        0.06554544199145        1.21818049954437
C           34.91384936782305        0.02080337817312       -0.00809896149889
C           34.22099622754079       -0.01291120852153       -1.22113531485822
C           34.85684081293999       -0.11157587977818       -2.49656130436561
C           33.89684145603955        0.10768611118971       -3.42755552554420
C           32.67911586875866        0.35331465515708       -2.71478299410966
N           32.87877536998757        0.20413369908630       -1.36183323799537
C           31.50479226783699        0.80537411542641       -3.29915645177464
C           31.49415717483720        1.11468361264039       -4.74650937015372
C           30.61250892970876        0.45041435113852       -5.60303341934126
C           30.59988397474174        0.73572104987679       -6.95838055460807
C           31.47433854144183        1.69398505032480       -7.44452053186599
S           31.45500369131113        2.06823560760948       -9.15758428910005
O           31.95479053393566        3.38965000445860       -9.40243381241453
O           32.59074542372237        1.01460393408363       -9.64563046210393
O           30.20118072350909        1.69075561026884       -9.73818327600869
C           32.35488233892134        2.37469717572114       -6.61937580471223
C           32.36277246927511        2.07783676965539       -5.26660072143492
C           30.34025095255750        0.98220024796758       -2.56285942031568
C           29.11573903722894        1.50658930972517       -3.09409693363337
C           28.17206526302972        1.34276042308700       -2.13732606319247
C           28.82187362493419        0.72701876109351       -1.02021451280922
N           30.16352466681037        0.57235535958473       -1.26676048845743
H           27.07723611445606        0.26153245848964        0.09240203761210
H           27.08434130293874       -1.12308961520824        2.32910191480576
H           28.99123894983409       -1.67920109945981        4.15611906918721
H           30.09925291578895        0.44137655721119        5.31536722871052
H           30.12459778999045       -0.14665831848214        7.72879545256277
H           30.23729257135352       -3.51023096844871       10.05557493914461
H           33.04965612063916       -3.18101436467186        6.96385266700080
H           33.01959764967508       -2.60396147448577        4.54731527258581
H           34.08069191058815       -0.12633701610030        4.49827755247827
H           35.96559568102395        0.28746654313519        2.61258580062655
H           35.90543402883370       -0.31431804078332       -2.64336611407644
H           33.99428833388023        0.10890554494349       -4.50095477738009
H           29.94429388380653       -0.30387177742697       -5.20426730575653
H           29.92119506573381        0.22694340931992       -7.63131459124294
H           32.87730354055491        1.22545005827537      -10.54264853299839
H           33.01540681422004        3.12753617788805       -7.03091711123128
H           33.03452973973797        2.60809049455974       -4.60170629175673
H           29.00617396504602        1.93987242808253       -4.07500972203064
H           27.12525165140990        1.59917225326696       -2.16978457575348
Co          63.41805249981277        0.07521221955963        0.00140356084795
C           66.78552846365133        0.21254705562172       -0.00616005066473
C           66.13097802411356        0.06905801220685       -1.21078342966523
C           66.79054584150029       -0.06408870431663       -2.47411078543301
C           65.83096323328292        0.02212327495710       -3.42512923886919
C           64.58673692912726        0.22592332863421       -2.74164164704118
N           64.77353784100426        0.17751827729703       -1.38355942711331
C           63.39278912624162        0.56048989519835       -3.36601451481215
C           63.37889540297248        0.76978232942062       -4.83104953016580
C           64.19636498028056        1.74261024085153       -5.41247952528080
C           64.18364700370712        1.94454201043035       -6.78259622435029
C           63.34982000032765        1.15989403846589       -7.56280032488282
S           63.32388832847825        1.41572966551270       -9.29700875056493
O           63.74992079940537        2.74479961005662       -9.62428532003120
O           64.51662869788468        0.39052409130651       -9.70306413235219
O           62.10009172345094        0.93073972766821       -9.86379909717160
C           62.52644046056422        0.18919999535012       -7.01578936234796
C           62.54361894076870       -0.00096400215793       -5.64397464571307
C           62.21221210705638        0.71483455824291       -2.65288461817351
C           60.96946384272492        1.13677314528572       -3.22589019419640
C           60.02482216293663        0.98426917876540       -2.26654656190431
N           62.03954974502823        0.37809173936006       -1.33094904501082
C           60.69280255179307        0.47694087381726       -1.11013108637265
C           60.02978776462969       -0.01109184184660        0.01718109079480
C           60.72605133244473       -0.47907436950206        1.13302639639785
C           60.09510678580899       -1.03594755719794        2.28732899125620
C           61.05818450718146       -1.16852598926695        3.23130072687915
C           62.27328468936435       -0.67839105846257        2.65326158668582
N           62.06956878222443       -0.32552628428288        1.33951853084259
C           63.44919186763173       -0.46891359072745        3.35940238160371
C           63.46325782205964       -0.70952352936589        4.81988630428986
C           64.34265760104262       -1.64436034505718        5.37187433432242
C           64.35640648979646       -1.87595294893102        6.73743926197186
C           63.48563780782293       -1.15947720347332        7.54220353564601
S           63.50318239328550       -1.44215094258567        9.27265357285025
O           63.01607561020373       -0.29859331807265        9.98759814928676
O           62.35419111741259       -2.58841428425458        9.33942255680362
O           64.75091959971203       -2.02085919067263        9.67266191909863
C           62.60816670455034       -0.21992072857165        7.02549056723945
C           62.59897528724961       -0.00030516779265        5.65809435316222
C           64.61115305875633       -0.03560219613763        2.73541317622035
C           65.83779433504354        0.25777398369449        3.41794419298084
C           66.77918593506259        0.45306779969734        2.46499835923148
C           66.12621544989787        0.28826252683996        1.20178964759354
N           64.78449060453589        0.05657537417533        1.37819161113168
H           67.86781923404341        0.26157684543034       -0.00843200357684
H           67.85327093931809       -0.19908320701940       -2.59692698277278
H           65.94216100593228       -0.04044694358405       -4.49550129547450
H           64.83104666957743        2.35522915103777       -4.78289024335374
H           64.80448842477736        2.70319297435935       -7.24237235273087
H           64.68810203642654        0.43624459683871      -10.65153737694483
H           61.88292867130532       -0.40220245133240       -7.65492945709390
H           61.91539259074712       -0.76257195246839       -5.19694517355879
H           60.84674306105230        1.50131497431333       -4.23271098686438
H           58.96660894010345        1.18168841017106       -2.32439245356934
H           59.04717637679843       -1.28027389325140        2.35344884547060
H           60.96459015741753       -1.55817731966091        4.23186381880725
H           65.00787775950329       -2.20229783085707        4.72327341035716
H           65.03271732009848       -2.59885510508534        7.17598461286935
H           62.05726790859693       -2.71015775478287       10.24943467185771
H           61.95078696522145        0.33212153116051        7.68543677867181
H           61.92903676758291        0.73884853910647        5.23460383180866
H           65.94987341403245        0.30320346846068        4.48908378454266
H           67.82657408494410        0.67883410487417        2.58604053860332
C           40.11295089536053       -0.02567628861068       -0.03366696871110
C           38.88392921874603       -0.02047713969509       -0.03072041198069
C           37.54057608088154       -0.00879042043207       -0.02665955174051
C           36.31643109030038        0.00289718696713       -0.02023526600180
C           41.45605906774783       -0.03072769324045       -0.03394257230147
C           42.68062183386740       -0.03255559060569       -0.03565350309780
C           56.05660376133719       -0.06214911810503        0.03152675127690
C           54.82851748662203       -0.06665450378821        0.02860088358266
C           53.48375142057222       -0.06798381619156        0.02403642075484
C           52.26001429496367       -0.06205830336804        0.01361961583913
C           57.40176641643269       -0.05138248707618        0.02889486975832
C           58.62491893913453       -0.03480724206711        0.02652270299130
Co          47.46950026063472       -0.05663517020947        0.00515637027211
C           44.08203557365768       -0.03258870525900       -0.03450974822371
C           44.76465825944788        0.82769045370423        0.83178114694872
C           44.12223897855872        1.70241205934786        1.76029737200743
C           45.07736012501039        2.54557905631105        2.22459257516513
C           46.29840716020917        2.18586399186860        1.56957127620323
N           46.10512893665830        1.08466270710351        0.76994732727406
C           47.47052858123892        2.92907527062121        1.61652101028205
C           47.46782392245616        4.22685501430594        2.32715814268155
C           48.34595014646980        4.45267739749679        3.39019454342898
C           48.34486645848896        5.66686019067016        4.05683019932362
C           47.46070318724168        6.65083091111513        3.64553669574139
S           47.46588228966165        8.19631712535430        4.47481031300504
O           46.94893921974847        9.23436383455418        3.63163936013131
O           46.34095082084404        7.86807976773094        5.59869385603916
O           48.72139375353426        8.40709502276468        5.13114067155226
C           46.58201578905434        6.45859995197970        2.59178374482945
C           46.58709534610984        5.23878634411678        1.93597008282602
C           48.64338529035349        2.48965848137192        1.01663903275192
C           49.86905516610317        3.22929249239034        0.98628911361923
C           50.82459941938792        2.38214279961515        0.53150630988656
N           48.83266330048213        1.22961673452443        0.49986979323491
C           50.17748354097233        1.13502233397121        0.27345044440880
C           50.85684403834556       -0.05562727318725        0.00028630186136
C           50.17088102815443       -1.23861467069789       -0.29017134825906
C           50.80825308570870       -2.49128918379334       -0.54421579538573
C           49.85307718442346       -3.32205435984607       -1.03008825667007
C           48.63711196512057       -2.56808194596563       -1.07903650068929
N           48.83217263274066       -1.31227353429287       -0.55646706032283
C           47.46778078453093       -2.99054302196905       -1.69889560708750
C           47.46460984603967       -4.28155854528845       -2.42151782306781
C           48.35686182594710       -4.50441685981530       -3.47341874709716
C           48.35832077961019       -5.71320964431603       -4.14974794196796
C           47.46218690190346       -6.69496869006558       -3.75949364402070
S           47.47204275842888       -8.23482720884238       -4.59891213204480
O           46.93227334677404       -9.27447777039413       -3.77213476830668
O           46.37103145137960       -7.89172395088391       -5.74196351999526
O           48.73808326603884       -8.45065044862378       -5.23310719875902
C           46.56928283766477       -6.50569307088756       -2.71719050520682
C           46.57236967827951       -5.29138036407683       -2.05129719286050
C           46.29982565302299       -2.24154549101023       -1.65172986080778
C           45.07877452181870       -2.59485259354770       -2.31091001266633
C           44.12331322421451       -1.75822940755868       -1.83659621248125
C           44.76620471161262       -0.89041413163275       -0.90167300152925
N           46.10840848891925       -1.14059487668898       -0.84991482524502
H           43.07293902643222        1.67142688371297        2.00554470403644
H           44.97429216918460        3.34170959760023        2.94382250079793
H           49.02179364271589        3.66567430301362        3.70371394973459
H           49.02095685417238        5.85296092588035        4.88180999236060
H           46.05145839159701        8.68181595895462        6.02928678946527
H           45.91283310651656        7.25399026395233        2.28859621224071
H           45.91685944455410        5.07206601905759        1.10083088654264
H           49.97530996821804        4.26037267270848        1.28151539473557
H           51.87701009355560        2.56665643484286        0.38836356788420
H           51.85455063984019       -2.69071715926811       -0.37804149968410
H           49.95352302296750       -4.35186353147527       -1.33182321658105
H           49.04232709860788       -3.71926646057839       -3.77024547429009
H           49.04567966267264       -5.89703214601844       -4.96587781679136
H           46.09386413557072       -8.69974710909104       -6.19104512092943
H           45.89108621251450       -7.29943062349165       -2.43010650045909
H           45.89176412960970       -5.12788703666851       -1.22393208555091
H           44.97531003006418       -3.38508470446258       -3.03650689183332
H           43.07345973310972       -1.72630727558963       -2.07938390918661
