252
 energy: -478.369407962218 gnorm: 0.000606008806 xtb: 6.5.1 (b24c23e)
Fe          51.42940230957662        0.07632122292954       -0.57766228103174
C           48.07780927384752       -0.14356424322775       -0.15817014268666
C           48.63111213439682        1.11504592795470       -0.28147959330800
C           47.86825858159919        2.32667595417649       -0.29239319420425
C           48.75843570727368        3.34565830990985       -0.34258635593999
C           50.06584278764406        2.75442301651924       -0.33377436660336
N           49.97145412406277        1.38919114649243       -0.35056541801047
C           51.25111431204131        3.47384831113033       -0.22139751331115
C           51.18082251492124        4.94854434492389       -0.09405883439169
C           50.50039922511588        5.54028925998574        0.96637930276357
C           50.43853210197896        6.92859879836276        1.07961832972128
C           49.69813121245467        7.49988855288203        2.23304873851167
O           49.70566756148398        8.84028870899386        2.26338935986324
O           49.13639251121428        6.84385491569848        3.07223084641583
C           51.05817234000278        7.73655717590753        0.12641411810468
C           51.73664846451566        7.14963689627208       -0.93021071371588
C           51.80098215278477        5.76795663567249       -1.04063845340774
C           52.50030272291231        2.86784629868310       -0.19906533141596
C           53.72830958436656        3.56734888934545        0.03555689260247
C           54.72594730246135        2.66062988323949       -0.10070322964335
N           52.74936481989540        1.53771162154304       -0.43529687421306
C           54.10728109122816        1.41212056025201       -0.41907455850864
C           54.82317736552870        0.27089614244699       -0.80384266316941
C           54.19612682842143       -0.93400243835559       -1.14998700736243
C           54.89935820018336       -2.08084097396810       -1.63263520547336
C           53.98800607339331       -3.07558436928064       -1.75506464562636
C           52.73233473139410       -2.53956679010066       -1.31996980847186
N           52.86969405763861       -1.20893242498123       -1.00115525647736
C           51.57860639581546       -3.29239836192867       -1.15628115850621
C           51.63217397314582       -4.74864734268414       -1.42702191140393
C           52.49003112442118       -5.57674404444057       -0.69972984637112
C           52.53687902048376       -6.94080437477519       -0.95176794546265
C           51.73185807529909       -7.49390295738871       -1.93345900648311
C           50.87048945137035       -6.67651937721945       -2.66703150900571
C           50.02340641320890       -7.30702987475405       -3.71042319649595
O           49.23006867823291       -6.43890883906366       -4.35480523220927
O           50.02965442401077       -8.48278533740431       -3.97151177584408
C           50.82008974239645       -5.30779869526915       -2.41145022117161
C           50.37310863776352       -2.74274258116345       -0.72927952001233
C           49.19135795660402       -3.50760930155323       -0.45268824048676
C           48.21321812320956       -2.62123392801890       -0.15083955496211
C           48.79781279584025       -1.31733093833768       -0.24495544733841
N           50.12966915688958       -1.40858188673768       -0.55640645706412
H           47.00636097909450       -0.21489654977736       -0.00894836041152
H           46.79109332235086        2.37183334740887       -0.26959025254212
H           48.55939961450645        4.40434817246837       -0.37888236560497
H           50.02543245872901        4.92839032085432        1.72542482802852
H           49.20439891658874        9.13395651199377        3.04149577185987
H           51.00673262136998        8.81494886558099        0.21493046801214
H           52.21881627005438        7.77157687259700       -1.67589848832308
H           52.32355603606410        5.31489434364228       -1.87569231420517
H           53.80695761424700        4.61368410172690        0.28203019009369
H           55.78852673992229        2.81442046845380       -0.00812181786707
H           55.95487805637780       -2.11013668118914       -1.84661187377659
H           54.14391042365920       -4.08298936743861       -2.10476479542069
H           53.11096778679088       -5.14772453063773        0.07861938105658
H           53.20451610277965       -7.57195509747640       -0.37655193024934
H           51.75677051087872       -8.55716651019412       -2.14377281647399
H           48.71289378531495       -6.92637938464622       -5.01639708690635
H           50.15923022038928       -4.67302462447183       -2.98976549313859
H           49.13244097148068       -4.58354078316879       -0.48198898092573
H           47.18353602795413       -2.81314966439755        0.10563865776456
Fe          83.88668505449517        0.21595306754771       -0.54388796369866
C           87.25843084330130        0.05903035819243       -0.75720648654345
C           86.53501054149336       -1.07218612404077       -1.07490081205623
C           87.12303243164479       -2.30309265345534       -1.51099751535066
C           86.12707320423540       -3.22002940918567       -1.54080686044256
C           84.93103872638324       -2.54746332603558       -1.12153857235597
N           85.18531428107011       -1.22438073381353       -0.88928949947690
C           83.70363788211591       -3.17439111060374       -0.92320357081202
C           83.63037425315673       -4.64540595131858       -1.07857516077536
C           84.41956235669372       -5.48044473637112       -0.29219511136821
C           84.35938126658570       -6.86437521966921       -0.44936119979322
C           85.22965845589657       -7.70106572973687        0.41529422251212
O           85.11058006853358       -9.01605018875603        0.18209653510808
O           85.97995597599257       -7.26438271216071        1.24986676275794
C           83.50562720658569       -7.42402197574538       -1.39986060158544
C           82.71872517835078       -6.59506716338156       -2.18390922042983
C           82.77826536529443       -5.21772856222577       -2.02658200808306
C           82.54457224747510       -2.47400967647294       -0.61853166199021
C           81.26643215403375       -3.08180964825240       -0.39585769991456
C           80.36210950684314       -2.07415986567173       -0.33060837626837
N           82.42480533898377       -1.10413209921922       -0.60687230752725
C           81.09028207603586       -0.85545350427366       -0.49137689345100
C           80.48701281035316        0.40773519118262       -0.58485184300168
C           81.23001436008919        1.59554715729238       -0.56922938656952
C           80.64393197618884        2.89822692663073       -0.60969780810805
C           81.64354011126127        3.78463808386120       -0.38274391658181
C           82.84327668547246        3.01949413981703       -0.21833090659942
N           82.57841327381774        1.68172456845188       -0.38021241551688
C           84.08080935642909        3.56640766901591        0.09516537543686
C           84.15663137538479        5.01634098260239        0.39216339085782
C           83.44965089583749        5.55223135281516        1.47094277299817
C           83.52045909117089        6.90813903317788        1.75862975316721
C           84.29105920488090        7.74608480608324        0.97003179749177
C           84.99640567512837        7.22349329409808       -0.11505259143673
C           85.80632748393401        8.15527905689747       -0.93986883393517
O           86.44033632199881        7.55757711629235       -1.95899511893333
O           85.89983349437038        9.33814315310373       -0.73377731881315
C           84.93003254788617        5.86145024217238       -0.40085137231092
C           85.25334295295774        2.81813059688518        0.10761344570370
C           86.55275594520299        3.35210503040640        0.39996166387276
C           87.44819183089457        2.37385329403395        0.12587809776037
C           86.69419025693114        1.23551123799623       -0.30541259365401
N           85.35210094888239        1.50609084211823       -0.26917815211208
H           88.33825623569585        0.01251144135958       -0.84160011709192
H           88.16679883435035       -2.43222122891491       -1.74910826384217
H           86.18444150101932       -4.25846439476655       -1.82406055415282
H           85.07960372208045       -5.06391577115654        0.46083055577802
H           85.70846871347362       -9.49100216745375        0.78200638936466
H           83.46255188050378       -8.49941481125486       -1.52258800982494
H           82.05577893995387       -7.02286678183605       -2.92747349552573
H           82.17314554762325       -4.57471863117851       -2.65591642647877
H           81.09239852314232       -4.14107239525071       -0.29888201566028
H           79.29858794526399       -2.13799959527151       -0.16948420885639
H           79.59897719585315        3.09673009878678       -0.78099035933173
H           81.58563867715117        4.86017746540872       -0.34190981989598
H           82.85383115615835        4.89539326403871        2.09478556457527
H           82.97166195259959        7.30900327984168        2.60314442397768
H           84.35704460038731        8.80762108468171        1.18019319198597
H           86.94206769666877        8.23069804971745       -2.44693905580619
H           85.46741950186707        5.46066073427081       -1.25212548082975
H           86.74333351386150        4.34893942360264        0.76316864445419
H           88.52313961338993        2.40066451546406        0.20760002248209
C           56.22259866145759        0.34420735249140       -0.87657523716210
C           57.43861992976277        0.40787764193103       -0.94314412725947
C           67.04259869048421        0.57006498003226       -1.08743728218098
C           68.26252389119122        0.57685409306283       -1.08622837706969
C           77.87446343654872        0.51030569993459       -0.79205642343571
C           79.08842587117739        0.47541978017855       -0.67744924402093
Fe          62.23925610607749        0.55691814270959       -1.15301649562969
C           58.83731076149794        0.46689304326659       -1.02185902436912
C           59.50978883272829       -0.49505544504828       -1.79074395840646
C           58.85401402671970       -1.47313708666611       -2.59861382241460
C           59.81908153053960       -2.30166405439740       -3.06933512874841
C           61.06000744700830       -1.83479804004771       -2.52875051191250
N           60.85887612343815       -0.68457019946651       -1.80565088411208
C           62.26431598728004       -2.52630081677488       -2.60555650639070
C           62.27433096816825       -3.86249720462281       -3.24222423937332
C           61.44438347421617       -4.87628045931558       -2.77070087475978
C           61.45280080086308       -6.13406156328489       -3.37148738649239
C           60.54098414075523       -7.17109421541431       -2.82452709601845
O           60.63697095761572       -8.35211284395634       -3.45070974949252
O           59.77792869127963       -6.99026126333724       -1.91050313441034
C           62.29501193022497       -6.38594292562637       -4.45432054376042
C           63.12233380568645       -5.37852487486289       -4.92568888242082
C           63.11579854872355       -4.12740011249558       -4.32582634656804
C           63.45417143044562       -2.02744806651533       -2.08726100474788
C           64.68979005557185       -2.74996742636184       -2.04420740086484
C           65.63552001889764       -1.87947540149208       -1.61132045273330
N           63.63744779055919       -0.74623585258334       -1.62962538072743
C           64.97418771836912       -0.63193248241171       -1.39239873191903
C           65.64284173221787        0.56743836987087       -1.10785042752128
C           64.96270344424467        1.77455039716804       -0.88484948069183
C           65.61231735918587        3.03699879068015       -0.72520914786416
C           64.64401088355582        3.93804845042653       -0.42572709240576
C           63.40866974124581        3.21440694034643       -0.38044334140276
N           63.61661065710529        1.90087865283825       -0.72844204260733
C           62.20633135959206        3.73257578723256        0.08401293371258
C           62.17721252064548        5.12366742624477        0.58995069533987
C           61.31219178995769        6.06069690548555        0.01916547385090
C           61.28390819271593        7.36930253805880        0.47992626852630
C           62.11404765686270        7.75804512198906        1.51808386744564
C           62.97858446745057        6.82990309783865        2.10024741786364
C           63.85197759692893        7.28594135102042        3.21158625429645
O           64.65399438608578        6.32540677485956        3.69210894927929
O           63.85896455085946        8.40653413258758        3.65212826050751
C           63.00945421606622        5.51665866389882        1.63631261919067
C           61.02675354093906        2.99374419974357        0.11321982439826
C           59.80531253290074        3.43990080238854        0.71147670461276
C           58.86578208798952        2.50512731642752        0.42212573903037
C           59.51401091194202        1.49919374940145       -0.35742205375696
N           60.84327494026789        1.77568368582270       -0.48960835836891
H           57.79328198280799       -1.50623157690851       -2.78498939287167
H           59.70713111342362       -3.15115380859225       -3.72296969856660
H           60.79525838932813       -4.70392219491010       -1.91915630783256
H           60.01403924328425       -8.97254292706744       -3.03835616176383
H           62.29823575959719       -7.36312859314972       -4.92174458741340
H           63.77711859385006       -5.56653148368414       -5.76900020312990
H           63.75475162986568       -3.33967274105235       -4.70898198147198
H           64.80891069734294       -3.78946506478005       -2.30284810581256
H           66.68696987663695       -2.05497144141827       -1.45175829581661
H           66.67120119138811        3.20313060700699       -0.83936242796872
H           64.75007838084848        4.99609788213794       -0.25010851413901
H           60.67150420797706        5.76105164367908       -0.80264062574500
H           60.61163497793766        8.08662247362500        0.02324484364902
H           62.10517349445171        8.77634521117578        1.89005284746937
H           65.18669546269517        6.69962769617396        4.41270699644150
H           63.66888939920717        4.79410166060194        2.10224580677267
H           59.69177848837884        4.34428134687923        1.28673844898426
H           57.82526494863798        2.49071410144353        0.70223824500670
Fe          73.07224651888366        0.61818247499919       -1.13350922597370
C           69.66241911229416        0.59260632502775       -1.10649786324158
C           70.33691217494273       -0.43573138420510       -1.78153278054650
C           69.67589970176031       -1.45271653987411       -2.53705844067206
C           70.64017275247984       -2.29504871590932       -2.98229715146517
C           71.88449684625571       -1.80126198863364       -2.47243042325857
N           71.68441145856686       -0.62709456234485       -1.78598546222309
C           73.09206263133530       -2.48108342327888       -2.55655280155826
C           73.11528431303887       -3.81233190641443       -3.20632147335816
C           72.33339547088744       -4.85559273463297       -2.71861106992153
C           72.36049910019395       -6.10639784774238       -3.33397357261666
C           71.50353209228825       -7.17845649951223       -2.76681517600317
O           71.61915558402869       -8.35094015017984       -3.40630164680136
O           70.76728153465102       -7.03232347484002       -1.82518563330186
C           73.17162786982155       -6.32023780926181       -4.44819403775059
C           73.95077235976169       -5.28265642895561       -4.93588516648417
C           73.92726863581387       -4.03930644711114       -4.32044595057449
C           74.28097973715953       -1.98500274861171       -2.03031543011041
C           75.50647547243861       -2.72256605949564       -1.97937900541217
C           76.44743631017158       -1.87968628911443       -1.48675202692585
N           74.46586177876679       -0.71893246715908       -1.53611502081690
C           75.79586035096310       -0.63192488403055       -1.24416775844308
C           76.47798092060300        0.54908989046421       -0.91849577919829
C           75.81630133786594        1.77556759568459       -0.75534564128827
C           76.48917658072773        3.01896165268942       -0.55551649624898
C           75.53101843584082        3.95028967818274       -0.32665467193742
C           74.27561478095518        3.26274690484384       -0.35939306190369
N           74.46566621069942        1.94103560936369       -0.68227681232108
C           73.06326858942792        3.83152314053643        0.01355342744577
C           73.05830517927281        5.22963624741942        0.50362767973891
C           72.30047235986200        6.20531328779159       -0.14784185197167
C           72.29767543093170        7.51687783929397        0.30609427938281
C           73.04532577844263        7.86913541117710        1.41737401063807
C           73.80231484995630        6.90172826983273        2.07990048424770
C           74.58920856069466        7.31795783514022        3.26869243042337
O           75.29206496830207        6.31978538037874        3.82266567763534
O           74.61222195717376        8.43858570312255        3.70857757684878
C           73.80874778031654        5.58597000054819        1.62237555644085
C           71.85920910069244        3.13842553344064       -0.01852654461580
C           70.61750914540922        3.65269873609705        0.47553546617013
C           69.66888042801004        2.73000167194536        0.18016413391648
C           70.33385525729624        1.66188833225478       -0.49713590474671
N           71.67411836106398        1.89532835331595       -0.57063173530335
H           68.61270416368748       -1.49914974821484       -2.70813749818605
H           70.52639478089031       -3.17237003082690       -3.59776201981038
H           71.70841599947774       -4.71238179505570       -1.84394932423307
H           71.03365773812563       -8.99590803112399       -2.97708020715769
H           73.18904276927948       -7.29196620295671       -4.92659204720261
H           74.58146043392001       -5.44120123645394       -5.80328194111970
H           74.53084762979552       -3.22872108982871       -4.71315052978629
H           75.62244676558707       -3.75277627391706       -2.27412462898893
H           77.49373048277508       -2.07141475895113       -1.31612310274076
H           77.55732175633921        3.15309837631717       -0.59291708904609
H           75.65645212429361        5.00566293693048       -0.14834592499878
H           71.72436141021740        5.93332215888439       -1.02516262321821
H           71.70934490285424        8.26493888771858       -0.21281882055704
H           73.05383968654643        8.88882661206218        1.78551777827423
H           75.77377467751143        6.67009897793877        4.58962686191940
H           74.38483030630502        4.83342177977442        2.14761171282267
H           70.49736859792195        4.59222227522308        0.98985967407718
H           68.61287063244133        2.76010561232139        0.39400805874509
