197
 energy: -379.210440623910 gnorm: 0.000658223575 xtb: 6.5.1 (b24c23e)
Cu          33.38669450607969       -0.04041432363168        0.00781352052720
C           29.98187269202719       -0.13450164099812        0.02747885046091
C           30.61430768641920       -0.17424750184405        1.26068738062979
C           29.93591068053834       -0.21719485770844        2.52460106553976
C           30.89186049329445       -0.22469703026092        3.48591894963802
C           32.16453033744720       -0.19632692266130        2.81680744521475
N           31.96457812887408       -0.15878046974545        1.46698689505646
C           33.40734525640271       -0.17492619695501        3.45395057559561
C           34.64175794774996       -0.10845753405088        2.80446568334321
C           35.91815896378356       -0.13898124305819        3.46127695981915
C           36.86597000890341       -0.08253473098902        2.49196528673984
N           34.83237792220348       -0.04412814887946        1.44995058152100
C           36.17709472085954       -0.02413023603498        1.23760785232351
C           36.81495471846642        0.02806832236755       -0.01325273914703
C           36.15999438258731        0.06753447309303       -1.25570868639379
C           36.83145047178719        0.09600843652407       -2.52046491030849
C           35.87018315122620        0.12249322221691       -3.47782940458719
C           34.60305962694322        0.11692197078040       -2.80273591669052
C           33.35929417391478        0.11917984762283       -3.43777356157357
C           33.34782896474768        0.19484177474016       -4.91907257402918
C           32.80644164411324       -0.84669220173708       -5.67723137841421
C           32.79559425565186       -0.77275695194569       -7.05787132787941
C           33.32182656966028        0.34590867833600       -7.70682809860582
C           33.28319101843657        0.38096972510866       -9.18821536791131
O           33.81666587200969        1.49456585660817       -9.71328301911432
O           32.82260727366381       -0.49313261763098       -9.87778024073984
C           33.86273154972691        1.38906860176972       -6.95453230525518
C           33.87653501646434        1.31064379172072       -5.57289543135710
C           32.12498187039332        0.05432061644873       -2.78693540312412
C           30.84288117426585        0.09559319885436       -3.43702222143058
C           29.90057751563447        0.01844126812162       -2.46530171797701
C           30.59697114824142       -0.05923360216539       -1.21294621221456
N           31.94414188307113       -0.03042149304085       -1.43651288442713
N           34.81247620178205        0.07464954781334       -1.45003744254365
C           33.41631080570544       -0.22780890189867        4.93644094403799
C           32.90682119674254       -1.34220122283918        5.60795848353076
C           32.91515126894809       -1.38849574136102        6.98989081270321
C           33.42801181148503       -0.31917027141614        7.72668099783416
C           33.40868414013254       -0.41244746677040        9.20598089023019
O           33.92301870425868        0.66485843725633        9.81867654481814
O           32.97833611310195       -1.35358144371951        9.82271368047875
C           33.93710162149284        0.79632133989249        7.06093902825529
C           33.93261036322523        0.83796463132025        5.67765607603679
H           28.89694195485668       -0.15204919713731        0.03413752153045
H           28.86426980654343       -0.23159731229868        2.64591086287919
H           30.75474862989670       -0.23612891240297        4.55519503732114
H           36.06619996324823       -0.20946097962137        4.52666273529825
H           37.93818018669530       -0.08511520052270        2.60570883497055
H           37.90193275172862        0.09001247618363       -2.64932860910788
H           36.00352081604275        0.12985549115965       -4.54747504705559
H           32.40863647014174       -1.72164371032171       -5.17576189464473
H           32.38113833409998       -1.57951304473798       -7.65243786460072
H           33.75247490792922        1.43953247598527      -10.68055743463730
H           34.26960011747547        2.26051242549750       -7.45376334245760
H           34.28558237860187        2.12690808235316       -4.98815825771080
H           30.69036189815216        0.18490239975939       -4.50051556151886
H           28.82729052847989        0.02039809762656       -2.57187201349837
H           32.51855071450572       -2.17839316911487        5.03760436014620
H           32.52574125273048       -2.25235060902428        7.51738570632651
H           33.87342765759942        0.52630825662045       10.77839541911992
H           34.33385041788537        1.62963644480810        7.62869096718236
H           34.31717839893203        1.70985567434255        5.16055109945805
Cu          65.47549661352939       -0.02953993515903       -0.04157806038496
C           68.88028989710271       -0.12926042315267       -0.07539783466091
C           68.24680489600043       -0.02669011767177       -1.30443696019791
C           68.92408050054583        0.07204392025135       -2.56582114460157
C           67.96740127970325        0.17906316323659       -3.52046958420144
C           66.69538493446737        0.13700174269675       -2.85083041404582
N           66.89647506153561        0.01813168918660       -1.50592222512321
C           65.45239810897607        0.23990966699958       -3.47955934994730
C           64.21863294315324        0.23833604237408       -2.82551269952883
C           62.94190237385131        0.29521401353792       -3.47982791495086
C           61.99474002478598        0.24188616765155       -2.50964618617445
N           64.02877496068423        0.14216258832559       -1.47270606141511
C           62.68430171654322        0.14509036707450       -1.25803159322451
C           62.04705400210478        0.04757725941575       -0.00947427869918
C           62.70301512315349       -0.06805808455731        1.22776799319891
C           62.03264067358040       -0.19239551683478        2.48728741725579
C           62.99466906604030       -0.28106322707669        3.44013369515091
C           64.26126273753064       -0.20478931164278        2.76829044229184
C           65.50548407838387       -0.27507753939242        3.39861844967029
C           65.51828154652105       -0.37369254274467        4.87851767203304
C           66.06450573884298       -1.49517221169287        5.50835081841571
C           66.07759341370291       -1.58393339811835        6.88808363853344
C           65.54860394994441       -0.55122441285501        7.66469800243002
C           65.59038816476055       -0.69034917568990        9.13993340316212
O           65.05172659237081        0.35048368601008        9.79314977981109
O           66.05768478142679       -1.63674049005365        9.72099606880837
C           65.00263461669388        0.57104547037368        7.04091873694908
C           64.98677102384261        0.65556836041535        5.65963244717166
C           66.73943338105747       -0.26158795951985        2.74393480347483
C           68.02205877828828       -0.29423851134364        3.39351226857727
C           68.96360957561559       -0.25984406747110        2.41861569900880
C           68.26623448082832       -0.19416040038302        1.16611793514122
N           66.91923393161640       -0.19063256314326        1.39259430770843
N           64.05075568421199       -0.08512592438587        1.42044139318575
C           65.44287427249608        0.35866807203115       -4.95833283402933
C           65.94113435240644       -0.67635533786242       -5.75387298797670
C           65.93165611378497       -0.56407919925318       -7.13197876617618
C           65.42923670317123        0.58765637938785       -7.74064441613816
C           65.44555803833384        0.66348828606194       -9.22092327713809
O           64.94599651530061        1.81074062023026       -9.70547012249295
O           65.86155602605464       -0.20722946478656       -9.94222950525807
C           64.93226327152740        1.62481957055202       -6.95066922588297
C           64.93753042768112        1.50761736322056       -5.57169872328931
H           69.96516907063823       -0.14862475574121       -0.08514781261541
H           69.99555235991282        0.06659996355540       -2.68935756543222
H           68.10361584269215        0.28936578565416       -4.58422165011112
H           62.79308341851507        0.35395647186061       -4.54583739478892
H           60.92250049137709        0.25989994720675       -2.62176364683555
H           60.96228471199377       -0.21429342066904        2.61546687155372
H           62.86224639839483       -0.40238925448697        4.50300753042619
H           66.46447125897718       -2.30370209826007        4.90704791001253
H           66.49602458781320       -2.45342658047812        7.38309452376018
H           65.11841903181661        0.18247115600420       10.74714329830126
H           64.59358410736570        1.37626371319671        7.63966953098549
H           64.57402360506724        1.53350839201421        5.17549306077661
H           68.17554869405717       -0.32660755270639        4.46011939404272
H           70.03698044491399       -0.26981395301409        2.52389440732309
H           66.32152242560934       -1.57601457342583       -5.28357051127781
H           66.31196535048247       -1.36572294924506       -7.75558207218352
H           64.99280586287500        1.78163572153985      -10.67484561636391
H           64.54404913131327        2.52175238580070       -7.41860805432342
H           64.56206485342054        2.31841209512951       -4.95758759569597
C           42.01937720828652        0.00915128141320       -0.03609370607094
C           40.79193826375237        0.01812720472702       -0.03530482788355
C           39.44579678965262        0.02478585924756       -0.03033445547146
C           38.22282984356812        0.02904270823638       -0.02218930091638
C           43.36539179422429        0.00392508172746       -0.03539211206342
C           44.58855018774216       -0.00053891190898       -0.03480713511669
C           58.06994090798401        0.05182845643541        0.01729727262318
C           56.84243622170438        0.04396378442913        0.01959574692140
C           55.49637213540589        0.03548097687431        0.01913331547833
C           54.27318961434824        0.02586381240660        0.01715484809210
C           59.41614936259835        0.05417816846887        0.01068336861280
C           60.63916242206276        0.05436723039580        0.00139009677666
Cu          49.43087314261027        0.01095198250439       -0.00987955901428
C           45.99579872549238        0.00173050611453       -0.03039717808825
C           46.64619087921240       -1.24385193101591        0.00179135407151
C           45.97189242756735       -2.50734108953939       -0.01925776145991
C           46.92999683709128       -3.46715512576552        0.03001167277544
C           48.19673443409889       -2.79419245259201        0.09171942413716
N           47.99130051183938       -1.44100925927793        0.06387045728393
C           49.43914541295915       -3.42951489985387        0.14973748974233
C           50.67821762358236       -2.78476176670045        0.15111179088147
C           51.94774316216456       -3.44268144542632        0.27947360699753
C           52.90123266576953       -2.47757999187117        0.24274974412591
N           50.87722602747827       -1.43399277568898        0.05304901101136
C           52.22132318053765       -1.22510277137899        0.10039684976222
C           52.86591241777738        0.02078253713856        0.01081709384676
C           52.21548632218651        1.26323696179574       -0.08679683278936
C           52.89027238545818        2.51916024523314       -0.22277462846082
C           51.93205396115123        3.47895567284284       -0.27310321074673
C           50.66474270252730        2.81423234015013       -0.15936619353137
C           49.42218399001121        3.45193268231278       -0.17515349913932
C           49.41890581459490        4.93367639831784       -0.24254967857129
C           49.99698642860020        5.68872863517245        0.78142618850958
C           49.98992557784848        7.06996473073016        0.71965782922178
C           49.40953076244684        7.72259897248944       -0.36969492397562
C           49.42926963435327        9.20454261365624       -0.39225468361633
O           48.84498651212905        9.73312557409551       -1.47842315313944
O           49.91658744584682        9.89192738112422        0.46898137397381
C           48.83355130401387        6.97336661206184       -1.39616527543884
C           48.83720305640360        5.59105679076576       -1.32950103953785
C           48.18266831178196        2.80980242099691       -0.13161108639764
C           46.91162388445532        3.47568668856982       -0.08656237390382
C           45.95838817057262        2.51053371026838       -0.04631875996184
C           46.63999298887668        1.25090229681957       -0.05695787674484
N           47.98443326344931        1.45554006037374       -0.10389967043918
N           50.86992630512287        1.46471453389162       -0.05665755502724
C           49.44334688223313       -4.91145541364323        0.21574407614757
C           48.85503191725186       -5.57328366098136        1.29674417701724
C           48.86238515205130       -6.95460104888617        1.35743359802311
C           49.45293549253633       -7.70069946403349        0.33565618136172
C           49.43319500866195       -9.17901332192705        0.44425714867233
O           50.02480117182288       -9.80121473548440       -0.58680395908176
O           48.93964764782593       -9.78745030630819        1.35958210635078
C           50.03910695023337       -7.04486376087784       -0.74735163930939
C           50.03563046998319       -5.66202697822950       -0.80298251904473
H           44.90244619581970       -2.63343963877722       -0.07365476807283
H           46.79529582038233       -4.53650624816432        0.01276629139170
H           52.08727135491503       -4.50507732540422        0.39704698135276
H           53.97095098017567       -2.59301054154448        0.31329687649741
H           53.96006911371524        2.64080216554776       -0.28006310897126
H           52.06756521301718        4.54182324152039       -0.39093138601406
H           50.43747860372983        5.18402014596968        1.63376363526522
H           50.43182494666826        7.66205636343822        1.51356077278995
H           48.90023301674051       10.70054510464280       -1.41684696473599
H           48.38507564790292        7.47547394737653       -2.24523617020759
H           48.40020474592479        5.00879783061290       -2.13292255435391
H           46.77027769199977        4.54423503898557       -0.07320242799334
H           44.88773872270341        2.63115232351370       -0.00498663194415
H           48.40629131247625       -4.99542917313706        2.09671560610006
H           48.41270881013345       -7.47437377961189        2.19633230685308
H           49.96926324533905      -10.75949183792770       -0.44055262038558
H           50.49543503395940       -7.61985754005300       -1.54442359984734
H           50.48108877302541       -5.15290666396707       -1.65025405879199
