112
 energy: -193.343411916158 gnorm: 0.000605482351 xtb: 6.5.1 (b24c23e)
Zn          12.35496902811221       -0.04579489812590        0.00291949819845
C            8.94505733580747       -0.06971264657505       -0.02286438634096
C            9.57166412082463       -1.30403288079926        0.09981766149895
C            8.89404230285631       -2.56188542567626        0.24729669666860
C            9.85013849608991       -3.51778926549155        0.35522246640845
C           11.12504528919751       -2.85603040914253        0.26550408895920
N           10.92047188631026       -1.51531055278196        0.11742136839717
C           12.37455219431170       -3.48173093712493        0.35104598344299
C           12.38268353265682       -4.95635742821727        0.50922762113258
C           12.92204736046408       -5.55939555485034        1.64513360167698
C           12.90178132011056       -6.94098064698471        1.75212084069103
N           12.39295385259404       -7.73290197027777        0.81351875907125
C           11.88029148801010       -7.16664606791072       -0.27448121625215
C           11.84976222225826       -5.79485743515202       -0.46941163394240
C           13.61610584138144       -2.83818941713112        0.30359366532274
C           14.89362562747779       -3.49481301088148        0.34188174687510
C           15.84288452045616       -2.52864422904127        0.25134348700438
N           13.81358688933681       -1.48911495503288        0.17878995414543
C           15.15618474012213       -1.27447424392992        0.14934318221162
C           15.79007376174724       -0.02211228896978        0.02293497540627
C           15.13978275948189        1.22135339778726       -0.10764096364913
C           15.81091336644128        2.47801875310336       -0.26593552156317
C           14.84996054239011        3.43131855673945       -0.36835582242430
C           13.58054735127746        2.76606671323852       -0.26457373530278
N           13.79463604757850        1.42190561976687       -0.11488418745840
C           12.33096153518421        3.39159736922904       -0.33782479493886
C           12.32118648235518        4.86670147282606       -0.48825654225038
C           11.76016656651261        5.47618606234361       -1.61007962891392
C           11.77841968660395        6.85836722979118       -1.70972671984844
N           12.30637458694285        7.64515304206969       -0.77747257419321
C           12.84142039189972        7.07278467320140        0.29645333622620
C           12.87406841193989        5.70013904493579        0.48384424873442
C           11.08920226072292        2.74654772911981       -0.28567343807235
C            9.80617711929912        3.39810698750441       -0.31524904808666
C            8.86221758947260        2.42785165662284       -0.23010167980013
C            9.55557845935760        1.17334966544504       -0.13803379375386
N           10.90166956177797        1.40047892932079       -0.16904062281814
H            7.85942111321805       -0.07637974172857       -0.01783626560773
H            7.82253010994430       -2.68446369372400        0.27134592919299
H            9.70986114385954       -4.57764969923365        0.49519876229192
H           13.33726407722695       -4.95306005874135        2.44143914646456
H           13.31129943104713       -7.43260905571586        2.62989482356006
H           11.47592252118767       -7.83971328584624       -1.02485146045230
H           11.43196503529184       -5.37874683587359       -1.37847069514133
H           15.04345681974442       -4.55998556359582        0.41464941214541
H           16.91474816476794       -2.64728900942222        0.24622255944158
H           16.88110382308216        2.60627041248599       -0.30052225914029
H           14.98764923219013        4.49047980165389       -0.51486116125700
H           11.33044753533274        4.87457051716036       -2.40230039680934
H           11.35188358004706        7.35462284015148       -2.57669387946423
H           13.26271524717110        7.74171151197183        1.04141664410170
H           13.30987834151885        5.27907501545597        1.38215712787587
H            9.65231896194067        4.46340439234065       -0.37965666893156
H            7.78933421663055        2.54032919545533       -0.22201508690817
Zn          25.83098284818707        0.04551514293954       -0.00995158213733
C           29.24096178029834        0.06005921035995       -0.04189060187445
C           28.61455034250139        1.27786436910421       -0.27810536661230
C           29.29238156574841        2.52520073805547       -0.49665610161900
C           28.33645807633957        3.47152567097434       -0.67048798714448
C           27.06146014236559        2.81153053859388       -0.56960931178134
N           27.26577361981057        1.48507678474088       -0.32455336085296
C           25.81201004598660        3.43462815969046       -0.67382490511792
C           25.80428062698024        4.89119598026354       -0.95267415244807
C           25.25759950561611        5.79929313314610       -0.04639622169538
C           25.27810856283330        7.15181757743078       -0.34793072529125
N           25.79397859112791        7.63544636388011       -1.47352665176432
C           26.31392351101398        6.77655121621560       -2.34482746688364
C           26.34469424226850        5.40777207606894       -2.12998023286030
C           24.57023924876258        2.80452203336856       -0.53633186978536
C           23.29287502560578        3.44299989686299       -0.69559902351441
C           22.34347537942656        2.49227370364742       -0.50185924811695
N           24.37253990238313        1.47781128692993       -0.26188803697199
C           23.02991092595656        1.26348202085165       -0.23032323747556
C           22.39581336283067        0.02912835541651        0.01550171529687
C           23.04589377074739       -1.19818849155478        0.25486109606189
C           22.37461014148309       -2.44579933628042        0.47289066721401
C           23.33549012861892       -3.38776262329806        0.65212347601461
C           24.60499943186819       -2.72195390137119        0.55339879290849
N           24.39105066887621       -1.39264254407758        0.30408660493254
C           25.85439698974863       -3.34272359841068        0.66124414338165
C           25.86360980547862       -4.79780420988024        0.94696069818242
C           26.41535515169427       -5.70890909188053        0.04699682739755
C           26.39666382120318       -7.06007578593371        0.35480218569837
N           25.87714806232803       -7.53973850148975        1.48033844888504
C           25.35111828383636       -6.67804639008856        2.34514988988442
C           25.31927981887701       -5.31036395506828        2.12430871571880
C           27.09624358087285       -2.71162524154893        0.51961425924761
C           28.37915269626475       -3.34534130753937        0.67471360752327
C           29.32333980774286       -2.39235349191366        0.47469514729021
C           28.63024898120811       -1.16369563540485        0.20435035236780
N           27.28409552075429       -1.38918849013055        0.24296320700084
H           30.32660029366421        0.06768299377306       -0.03927203504834
H           30.36389116666207        2.64983293588476       -0.50603575496746
H           28.47692903925157        4.52697997456391       -0.84038158154200
H           24.83637914253172        5.45178890855002        0.88958198377737
H           24.86243847554170        7.87803882431149        0.34480729741897
H           26.72416887858601        7.20137659724447       -3.25633308118179
H           26.76845748580789        4.74463407333036       -2.87480908894217
H           23.14313752974024        4.48266533984903       -0.93847699757020
H           21.27168506255983        2.60376230811213       -0.54449616835698
H           21.30435256043548       -2.57798685803191        0.47975371904446
H           23.19784452095496       -4.44330493856445        0.82286785997596
H           26.83822544079029       -5.36522276707416       -0.88962318546878
H           26.81567910314381       -7.78849696488811       -0.33342639232270
H           24.93670158504716       -7.09980938017363        3.25635008587782
H           24.89068724116021       -4.64470612852733        2.86415451712616
H           28.53270594190509       -4.38445301132075        0.91833326324379
H           30.39624156217991       -2.49866834411827        0.51155246794866
C           18.41809755793617       -0.00350767102955        0.01584550148645
C           17.19605175455719       -0.01266989665850        0.01801058778590
C           19.76779311674172        0.00772081849441        0.01407835933204
C           20.98984068957227        0.01874014187065        0.01263848750807
