258
 energy: -482.034276746138 gnorm: 0.000527355749 xtb: 6.5.1 (b24c23e)
Zn          53.92082109278995       -0.04350506999115        0.01227394455913
C           50.51452712972539       -0.13861176859381        0.01879909930702
C           51.13681007434257       -0.17756565278232        1.26058572656511
C           50.45429235117677       -0.21778903543263        2.52379003934280
C           51.40640810621753       -0.22691128360500        3.48944398827258
C           52.68425473265467       -0.20293779034187        2.82697767325003
N           52.48485557165144       -0.16562707738764        1.47814724208449
C           53.93121546334136       -0.18481742585303        3.46414423214410
C           55.17421951991643       -0.11926451455227        2.82388892727536
C           56.45110709077738       -0.15741024091558        3.48307349470302
C           57.40210539544996       -0.09602753559025        2.51690526366078
N           55.37399178261651       -0.04701359476060        1.47213232068497
C           56.71786543735912       -0.02723592902944        1.25861612170122
C           57.35317443855168        0.03805241726031        0.00463197109248
C           56.70937078779453        0.08499884349361       -1.24596556666273
C           57.38542517047480        0.12660037662263       -2.50984361411325
C           56.42818787530372        0.14966145430150       -3.47152148925842
C           55.15571939127695        0.12993307859803       -2.80323518209490
C           53.90868519708616        0.12091242742059       -3.43877903993056
C           53.90316019378965        0.19430666408974       -4.92004122174889
C           53.36624566463893       -0.84933928897141       -5.67888450243754
C           53.36253555193811       -0.77931600326638       -7.05966756628131
C           53.89088175146464        0.33821268456523       -7.70912805722548
C           53.86011481816547        0.36948135333849       -9.19017976672300
O           54.38845433062346        1.48585157193889       -9.71559980053206
O           53.40978472208108       -0.50931485928172       -9.88087904572532
C           54.42680797572532        1.38392919613583       -6.95653490491272
C           54.43402432364783        1.30885401569998       -5.57479472937080
C           52.66586290260253        0.04756776258431       -2.79781940529996
C           51.38395603516454        0.08301900013003       -3.45173524609937
C           50.43794735667785        0.00698238055596       -2.48298764434420
C           51.12849189977754       -0.06573863745779       -1.22560010832014
N           52.47512366977839       -0.03479187549888       -1.44976525244298
N           55.36419457487760        0.08374318474678       -1.45165899013196
C           53.93392961119098       -0.23925846222236        4.94619592565629
C           53.39731497312112       -1.34242299724916        5.61577866420929
C           53.39728695432250       -1.38920815964865        6.99755369606429
C           53.92916391125090       -0.33135540623291        7.73763532366031
C           53.89939901719514       -0.42438181097786        9.21622431528443
O           54.42084908813723        0.64768607110145        9.83292596185695
O           53.45363423548569       -1.36012658284357        9.83085363245153
C           54.46632765887949        0.77257248209564        7.07451057138206
C           54.46990304022654        0.81438791432590        5.69133004614688
H           49.42905065468057       -0.15566298536923        0.02172137319265
H           49.38238747381558       -0.22925287801544        2.64430595517486
H           51.26069736840275       -0.23627986722441        4.55772977550664
H           56.59940115443131       -0.23624086132727        4.54801326734092
H           58.47379234553454       -0.10242081739630        2.63687853659601
H           58.45627566443045        0.13048269340896       -2.63706893140627
H           56.56957288661205        0.16409561229677       -4.54021615465156
H           52.96695495971865       -1.72358312388965       -5.17728416076489
H           52.95233104068021       -1.58832287964343       -7.65414445991588
H           54.32893005366078        1.42736548137692      -10.68291463311679
H           54.83511488100968        2.25460282924816       -7.45596996320856
H           54.83913854312834        2.12722595836579       -4.99020719575697
H           51.23190440785115        0.16852440344963       -4.51576434108187
H           49.36529218168566        0.00698493467402       -2.59721188011210
H           52.99476004909637       -2.17041547170406        5.04341710647800
H           52.98659214843070       -2.24456183758323        7.52266853487543
H           54.36260308768527        0.50855759369487       10.79206732473566
H           54.87799588628084        1.59699523704475        7.64455519025100
H           54.87530404850245        1.67841624513297        5.17690958984562
Zn          94.36836075163522       -0.02770454425741       -0.05161043061023
C           97.77484060120283       -0.13091382150361       -0.07469738164384
C           97.15098318615840       -0.02140959717727       -1.31145122263200
C           97.83176856687466        0.08454300326533       -2.57177541040793
C           96.87843827954067        0.19338090088391       -3.53012580437009
C           95.60154525134763        0.14539656429513       -2.86710071521477
N           95.80271628283190        0.02177972400449       -1.52373268284065
C           94.35408400020432        0.24783249484126       -3.49516370521168
C           93.11204407717997        0.24594219161773       -2.84956098485667
C           91.83451032982518        0.29885499767902       -3.50637638557619
C           90.88459138335799        0.24802323709544       -2.53850357102297
N           92.91360550307012        0.15325204553283       -1.49881655444093
C           91.56999463624291        0.15560171607815       -1.28240009229329
C           90.93551412312578        0.06231754723138       -0.02956826568588
C           91.58083164603168       -0.05223888189040        1.21591049157620
C           90.90653434948359       -0.16658528346423        2.47623901318670
C           91.86508989387963       -0.26150761468004        3.43219411482287
C           93.13667347789141       -0.19901312583364        2.76482457492151
C           94.38455232505547       -0.28355713648333        3.39310347893139
C           94.39293079138896       -0.38681268500723        4.87259429239192
C           94.93306552432539       -1.51213908117088        5.50124064758828
C           94.94240526784907       -1.60489981178327        6.88067131464148
C           94.41650568690453       -0.57182686793124        7.65908739200180
C           94.45452316769446       -0.71435019573348        9.13357649113935
O           93.92942156102980        0.33275423658608        9.78854823268984
O           94.90833016876388       -1.66783050330040        9.71412478950507
C           93.87659079433175        0.55439325974110        7.03685074300269
C           93.86372131888510        0.64228142747443        5.65589262927330
C           95.62671432676694       -0.27863931992590        2.74663291474951
C           96.90941066324919       -0.32175409449708        3.39861955047657
C           97.85429136823734       -0.28244820224268        2.42662579317444
C           97.16229339885599       -0.20460215778579        1.17034124416492
N           95.81593956148456       -0.19954827185308        1.39818999740441
N           92.92633061874302       -0.07965295932285        1.41799858053625
C           94.34914830002569        0.36776204619515       -4.97333870730637
C           94.87527476456256       -0.65424765443349       -5.76823733134234
C           94.87003082334900       -0.54108231278308       -7.14615483939008
C           94.34375849953524        0.59906908991614       -7.75670397726981
C           94.36451193450176        0.67555002681260       -9.23621365195445
O           93.85370488768289        1.81736010020454       -9.72293481346378
O           94.79484189795319       -0.18901277726611       -9.95699966014604
C           93.81884890680142        1.62349719093842       -6.96808567464979
C           93.82014191042909        1.50502419922464       -5.58936955452038
H           98.86026542832758       -0.14995306169677       -0.08104518894414
H           98.90346674386072        0.08264339300725       -2.69468148073938
H           97.02277007581931        0.30915676618547       -4.59236048464321
H           91.68467742030141        0.35295967471696       -4.57264645962895
H           89.81284239244162        0.26454136809922       -2.65695064501849
H           89.83583741934835       -0.17791776714429        2.60433390469544
H           91.72536051881883       -0.37787942406303        4.49484889532613
H           95.33087095826683       -2.32090205879346        4.89874711958890
H           95.35559069656685       -2.47771164139772        7.37426827907251
H           93.99333709169640        0.16159456448863       10.74213157657131
H           93.47001584555176        1.35995793980023        7.63682404397802
H           93.45592501980708        1.52335093676847        5.17318913700810
H           97.06285532665497       -0.36365355910030        4.46504395987083
H           98.92707455671857       -0.29659493940626        2.53875244976743
H           95.27330477147494       -1.54581663878772       -5.29714344055769
H           95.27191464832762       -1.33309803291223       -7.76840719365831
H           93.90523256553917        1.78795018589916      -10.69207417945528
H           93.41168396842298        2.51134474739062       -7.43725207753621
H           93.42358880361054        2.30684081261894       -4.97672815909307
C           59.98394106676311        0.04354675029673       -0.01199385509616
C           58.76321106037685        0.04403740961735       -0.00139448553845
C           61.33657607668331        0.04100153769208       -0.02395738714235
C           62.55733262408170        0.03452424729098       -0.03665617278690
C           73.46905863600358        0.01736784089064       -0.04513164971771
C           72.24675638940592        0.01656770292559       -0.05219188844798
C           74.81803060094676        0.01908390623775       -0.03826584935300
C           76.04032908559333        0.02176743104448       -0.03114091047306
C           86.95183303939017        0.06713435762984       -0.01586365318634
C           85.73092746318710        0.06020301457172       -0.01525736518338
C           88.30458649579344        0.07022330648384       -0.02075829350191
C           89.52542722533711        0.07119114212349       -0.02263054728506
Zn          67.40416224520942        0.02426971057178       -0.05001039937846
C           63.96682320894174        0.03093628288158       -0.04537318391164
C           64.60561937285027       -1.22271848220577       -0.00883873683292
C           63.92502508640499       -2.48422701710393       -0.00037008367825
C           64.87858338105502       -3.44925871399420        0.04294289031815
C           66.15194230791741       -2.78456456039647        0.07119152235823
N           65.94977354400892       -1.43202754594945        0.02785776046815
C           67.39714577257966       -3.42262909328183        0.11035007819253
C           68.64461608320391       -2.78931333280886        0.08796701933523
C           69.91532093728139       -3.45271152618164        0.18085726351553
C           70.87246875669966       -2.49106746602967        0.13402743591842
N           68.85259504607052       -1.43880166619722        0.00208529081713
C           70.19645675477531       -1.23242293196691        0.02230185579495
C           70.84176152035903        0.01822950031100       -0.05500212419766
C           70.20078220385884        1.27122521453119       -0.13102014925991
C           70.88110364590848        2.52799720516217       -0.23810084800788
C           69.92736145287151        3.49335904266554       -0.27782897830514
C           68.65454936062791        2.83392547497653       -0.18630168204027
C           67.40956094207502        3.47206018713574       -0.20254216733376
C           67.41153955441536        4.95438689126787       -0.26009249034155
C           67.98397449110514        5.70110931925661        0.77324049986228
C           67.97998227574907        7.08273953254628        0.72178009976617
C           67.40835700103679        7.74471596868609       -0.36665570619556
C           67.42925080042463        9.22650563791844       -0.37716062381850
O           66.85339637506591        9.76449156958607       -1.46345859218245
O           67.91122115584395        9.90683066943268        0.49273126903236
C           66.83886637956940        7.00403762856481       -1.40300084303586
C           66.83939664849852        5.62133552322377       -1.34644133575257
C           66.16195394206446        2.83855496657438       -0.16616412525921
C           64.89110569426065        3.50774815927529       -0.13356429271733
C           63.93417718627506        2.54600368953979       -0.09057715036751
C           64.61027478051822        1.28209765877925       -0.08625413237890
N           65.95499378932752        1.48663742705641       -0.12739026254257
N           68.85769936508665        1.48223543211787       -0.10861350628457
C           67.39403988877126       -4.90416841004553        0.18596774149800
C           66.81994841735091       -5.55489541550350        1.28144036577313
C           66.82231923182904       -6.93560604425618        1.35366909238353
C           67.39431060075412       -7.69284036221675        0.32948083706873
C           67.37127809715865       -9.16983478210293        0.45152126661423
O           67.95418315589775       -9.80314507290014       -0.57793121883519
O           66.88351367919053       -9.76874003587285        1.37626244552146
C           67.96582167898102       -7.04844773573751       -0.76821381469381
C           67.96650546667263       -5.66619224622123       -0.83574731266155
H           62.85423425078191       -2.60775782861723       -0.03151068906056
H           64.73423364246953       -4.51759965570583        0.04333719466361
H           70.05605654180711       -4.51671073150371        0.28231871488503
H           71.94275674739347       -2.61510361778064        0.17840482814580
H           71.95174213997808        2.64843534057941       -0.28379829217847
H           70.07141163920251        4.55749951756064       -0.37313919414085
H           68.41713577274595        5.18934854328751        1.62516734274747
H           68.41682262929749        7.66807217107913        1.52345671502073
H           66.90904366755893       10.73127760887046       -1.39320636352185
H           66.39773629360404        7.51337832946972       -2.25162502643802
H           66.40726871619930        5.04590735191558       -2.15741948072112
H           64.75031372718520        4.57657545100478       -0.13090495660347
H           62.86390366952888        2.67344174227099       -0.05711146773460
H           66.38680549890510       -4.96856120169692        2.08387599518291
H           66.38371413528806       -7.44643488098369        2.20385235278444
H           67.89876339908945      -10.75975825984325       -0.42114095291478
H           68.40727334951789       -7.63211195102625       -1.56736390856601
H           68.39988825270601       -5.16611961552596       -1.69461826433982
Zn          80.88308572128675        0.04094305043693       -0.01678437813736
C           77.44530140814879        0.02730654271339       -0.02570810696079
C           78.09350425757384       -1.22347971263880        0.01695279179660
C           77.42052542810863       -2.48867278137290        0.02466724992193
C           78.37978337413598       -3.44799014535527        0.07581006769736
C           79.64869500558480       -2.77556565703794        0.10952839263404
N           79.43770236966090       -1.42366655810271        0.06198823269154
C           80.89738526420595       -3.40501504990693        0.15682341715344
C           82.14132634966296       -2.76354628812719        0.14072684515748
C           83.41541747170986       -3.41939644599906        0.24308686455222
C           84.36723594478069       -2.45270836462916        0.19668854014168
N           82.34118489032444       -1.41300148963514        0.05043051759376
C           83.68475019212792       -1.19808489661755        0.07505607978248
C           84.32136745360235        0.05416436128254       -0.01450450379188
C           83.67478753928124        1.30120506034051       -0.10479159102639
C           84.34776410192316        2.56110385494006       -0.22442036260374
C           83.38861481062986        3.52038270019351       -0.27221698354183
C           82.11940488252168        2.85464962268480       -0.17268249619608
C           80.87069339864442        3.48702812260489       -0.18952811240060
C           80.86756122932486        4.96895878288608       -0.25466849570212
C           81.44630258331685        5.72128773390619        0.77120038912312
C           81.44311572038023        7.10250213725616        0.71197322658186
C           80.86530845580174        7.75869702008830       -0.37669972948578
C           80.89046825068786        9.24041926912949       -0.39676057342322
O           80.30406410679372        9.77345385063508       -1.47968384496921
O           81.38418469623477        9.92437108383685        0.46368480843523
C           80.28755180041783        7.01260872354120       -1.40451632596329
C           80.28776937092863        5.63012878691522       -1.34043723386410
C           79.62671102003840        2.84808133932883       -0.14667833328105
C           78.35249812951072        3.51036970611251       -0.11365006564392
C           77.40067820684563        2.54332060583133       -0.06857618770578
C           78.08358811943825        1.28344205441906       -0.06322832241430
N           79.42625881492143        1.49438345713229       -0.10440165799365
N           82.32951149380226        1.50562204647835       -0.08357204364194
C           80.90254838900140       -4.88667871133132        0.23048034076690
C           80.32687678624308       -5.54278728844673        1.32188817119993
C           80.33220032601211       -6.92374376646707        1.38893674227720
C           80.90844397115016       -7.67582074230070        0.36328704160988
C           80.88567527175735       -9.15328854345269        0.47822384412677
O           81.46580071834626       -9.78179935718472       -0.55581389563220
O           80.39925873228627       -9.75682693760580        1.40069667895804
C           81.48288534770406       -7.02595761161625       -0.72967118915704
C           81.48112666304684       -5.64344685818694       -0.79168926454632
H           76.35067447638406       -2.61902241968429       -0.01152659712288
H           78.24164205349820       -4.51714852051635        0.07833530566521
H           83.56125112937384       -4.48224398385704        0.34956222139790
H           85.43798483398585       -2.57025304144269        0.24689564343185
H           85.41766560412479        2.68711663141561       -0.27174419409660
H           83.52669906060085        4.58428913290923       -0.37815731376847
H           81.88455587081010        5.21387348680013        1.62312490723748
H           81.88605535334231        7.69198109611559        1.50723673394160
H           80.36218570246156       10.74054092399465       -1.41534895980748
H           79.84111430228388        7.51754433969826       -2.25301637962834
H           79.85016329546818        5.05066186901081       -2.14560275424081
H           78.20597470145862        4.57842454299438       -0.11209380288052
H           76.32977489862394        2.66515743263389       -0.03370525749421
H           79.88931244416676       -4.96041352187416        2.12480810868600
H           79.89183083682062       -7.43881519047334        2.23564457173177
H           81.40911233375975      -10.73914756326733       -0.40401547840082
H           81.92803985686319       -7.60559856306810       -1.52970919872898
H           81.91651529809212       -5.13910807722698       -1.64705447152750
