336
 energy: -622.309822287696 gnorm: 0.000704765034 xtb: 6.5.1 (b24c23e)
C           62.80835293172365       -0.07610094770515        0.06284120376745
C           63.42669414886210       -1.30657602867332       -0.11683878892834
C           62.78490768416526       -2.56864594238733       -0.26173745262546
C           63.75410187757952       -3.51772210877497       -0.42488415179961
C           65.01942396200756       -2.86437209785763       -0.39328109061092
N           64.77133209850373       -1.53582691410110       -0.19739637780652
C           66.28697159489950       -3.44679597021936       -0.50580149898963
C           67.49856522796316       -2.75670120480847       -0.41974377877758
C           68.79993716552291       -3.37839739656108       -0.58904014435728
C           69.71383390531955       -2.39724333001158       -0.44246714377630
N           67.64353098532312       -1.42203168406952       -0.19541922747303
C           68.96957002350976       -1.17700675711188       -0.19588785869038
C           69.59736730585205        0.06873710718609        0.00460824002699
C           68.95342281890822        1.30425012842116        0.20321823303910
C           69.58946828230522        2.55470621578657        0.42465955225096
C           68.61593938513572        3.50368806520024        0.56872292930679
C           67.35379885421077        2.86159684298179        0.43123010482847
C           66.08699844530169        3.44716431038119        0.52821144910054
C           66.04319616095346        4.91240602080953        0.74432034919009
C           66.60029791932986        5.78430953256485       -0.19524015278615
C           66.55118164437752        7.15139153709654        0.00552428285204
C           65.94946464405791        7.67313830445460        1.15229605662446
C           65.92110770854698        9.14543469925421        1.32241538260372
O           65.31487588130759        9.54405898199636        2.45099596948047
O           66.38990707701919        9.93004314922413        0.53742927643781
C           65.39617280200117        6.80703312719640        2.09594455126239
C           65.44181181196376        5.43938546612122        1.89038082750340
C           64.87445356081456        2.75483726494589        0.43678265782574
C           63.56483605940111        3.38666076528582        0.48928966579077
C           62.65817646230578        2.39729773741817        0.36202312375501
C           63.41234825680750        1.16420872665559        0.21962010697355
N           64.74338123975876        1.41895928681116        0.26196755164601
N           67.60983401735849        1.53301519483123        0.21855192956397
C           66.32614378781771       -4.91077829662729       -0.73677130564434
C           65.75014254894279       -5.45865956145268       -1.88576683764931
C           65.78404867456237       -6.82423288978838       -2.10762109806716
C           66.39099409975722       -7.66701717142814       -1.17614315062367
C           66.44919019340807       -9.13626590944514       -1.36484962427293
O           65.87412154644804       -9.55452108344203       -2.50268818379241
O           66.95705289186461       -9.90273501357192       -0.58647872904967
C           66.96513354783103       -7.12424971999856       -0.02501839779427
C           66.93555810922334       -5.75896260748034        0.19149876152131
H           61.72328661095931       -0.09520469264993        0.07732424317464
H           61.71731728004558       -2.71801637241792       -0.23676248282073
H           63.61174854279087       -4.57917446047851       -0.54720582932594
H           65.49079987114774       -0.82492651341692       -0.11859379527959
H           68.96900001823062       -4.42103865340172       -0.80376736363048
H           70.78833214776299       -2.46446434123602       -0.50057063489483
H           70.65680908839640        2.69846554375726        0.47218803482067
H           68.75625519370787        4.55423587694975        0.76412438689111
H           67.05448856909129        5.38263277993159       -1.09396151284578
H           66.97497279367428        7.83357529981695       -0.72326048124321
H           65.33778832362817       10.51411898480579        2.48603773309522
H           64.93246391351080        7.20724453867432        2.98976757515030
H           65.02339415110191        4.76624917075575        2.63005625414799
H           63.38823265133706        4.44488993039446        0.59509294679088
H           61.58163004082807        2.46466343985682        0.35222692668960
H           66.89253600730183        0.82505885095295        0.10056613716257
H           65.28985519347343       -4.80293648426202       -2.61629057490580
H           65.34110661285733       -7.24042465293710       -3.00462375156506
H           65.95544998713497      -10.52088485935207       -2.55086331735294
H           67.43108319229313       -7.78891503792888        0.69407309718426
H           67.37094026306040       -5.34073406874605        1.09178139602211
C          133.64880446808223        0.11140689431955        0.08549906967564
C          133.02517474055398        1.29097164851598        0.47066003174210
C          133.66133249899335        2.48936642358401        0.90069063296934
C          132.68787610961994        3.40821998177358        1.17410645358902
C          131.42543948024422        2.80343940255490        0.91048822537103
N          131.67948040413688        1.52635139090259        0.49874264407291
C          130.15523607419664        3.37138956826653        1.06010144365775
C          128.94703649341631        2.71003818266836        0.82591155283872
C          127.64364932468125        3.34134787348771        0.93215468511704
C          126.73373408540279        2.39120725988306        0.63432555893653
N          128.80748963852798        1.40942320939082        0.45012043086153
C          127.48245542680992        1.18500101219264        0.33762572408858
C          126.85940415086608       -0.03244819449022       -0.00267879207398
C          127.50871861181777       -1.23341113060561       -0.34392038074680
C          126.87902264887681       -2.46378454518595       -0.67065322858074
C          127.85686617559425       -3.37427814056020       -0.96063528449654
C          129.11524076371865       -2.72407440454218       -0.82677585366044
C          130.38455718920537       -3.28211877053235       -1.01328802215206
C          130.43402137641780       -4.69325408928082       -1.46236733268754
C          129.86028384264995       -5.06852799489281       -2.68036294932029
C          129.91505526065950       -6.38400471491396       -3.10231915831115
C          130.53916688346152       -7.35111149902621       -2.31204776500020
C          130.57271530660188       -8.74782241929947       -2.80755729689323
O          131.20141534788095       -9.59629787111292       -1.98000269855110
O          130.08938429951041       -9.11167758450618       -3.84949052762085
C          131.10894432900741       -6.98298806170677       -1.09279901919872
C          131.05759536017320       -5.66478277593004       -0.67495956435612
C          131.59421604681089       -2.60904001100392       -0.80937155862718
C          132.90588497588175       -3.18915269902491       -1.05455281419393
C          133.80855178265733       -2.23818393506783       -0.74164428509541
C          133.04974298608920       -1.07419266152463       -0.31866705135047
N          131.71995123785447       -1.33126450828792       -0.38052873936547
N          128.85302890238123       -1.43559988829307       -0.44368743444128
C          130.10751396841457        4.78534227415541        1.50301885901518
C          130.68805796866312        5.79021670037041        0.72504396706438
C          130.64575500625796        7.11117907222834        1.13563636296823
C          130.02553419722929        7.44781874327095        2.33908634531238
C          129.95729471032544        8.84662892041836        2.82523249122582
O          130.53899043746100        9.73064108994724        2.00049336278507
O          129.43744870420412        9.18313526791354        3.85871836108411
C          129.44653686101202        6.44657974635676        3.12117805871803
C          129.48454118168956        5.12838421609181        2.70593398627843
H          134.73386672841241        0.12826583769200        0.10266895802414
H          134.72827711031380        2.61675278346992        0.99067153645650
H          132.82560153948899        4.41445029650861        1.53525527605764
H          130.96323777144576        0.85085764634055        0.25395811620359
H          127.47080870789701        4.37440442598347        1.18656048039045
H          125.65927755188571        2.47488216133367        0.60338924679047
H          125.81282650954179       -2.62308157464647       -0.67570555799963
H          127.72216581377684       -4.40830756638941       -1.23299540276477
H          129.38857671092015       -4.31687694380710       -3.30313381344798
H          129.47856155067277       -6.68015109492435       -4.04987930604309
H          131.18046257374226      -10.48309695622240       -2.37489992351761
H          131.59002384958222       -7.73107038758695       -0.47391275097756
H          131.48897407542165       -5.38165502874845        0.27847205033299
H          133.08636765996806       -4.18428965372214       -1.42784688352843
H          134.88505227993986       -2.28621571919738       -0.79081589615454
H          129.56669505118927       -0.73883556125999       -0.25705669811686
H          131.15841213879429        5.53110123678421       -0.21680935819741
H          131.09228599274630        7.88540276259046        0.52307931828846
H          130.45095601539083       10.61658031087899        2.38803110029851
H          128.97005082666558        6.71896007618521        4.05642991292468
H          129.04521800946461        4.35089642666338        3.32035368447629
C           74.80022458571693        0.13440731800524        0.03545677017661
C           73.57216445756696        0.12632969196291        0.02465476331432
C           72.22736789407350        0.11277139994900        0.01656536747375
C           71.00388408420748        0.09371000899119        0.00783326709935
C           76.14488558600051        0.13877034120368        0.04374564083556
C           77.36867783088245        0.13728561748556        0.05330927949478
C           90.82925131800708       -0.04356849251361       -0.05559152612022
C           89.60045489666963       -0.03697626333004       -0.05018968989648
C           88.25740767917654       -0.02304259262223       -0.04168734413966
C           87.03322783475151       -0.00187778307047       -0.02922021562270
C           92.17239037668377       -0.04316510109254       -0.05389920183877
C           93.39679863053239       -0.03806926837263       -0.04390551037047
C          106.85521417713706       -0.03215874977375       -0.03665880183541
C          105.62636649687337       -0.03393375320515       -0.04518681542467
C          104.28325233079372       -0.02836019512752       -0.04723234816652
C          103.05888610804776       -0.02151384597135       -0.04103334973256
C          108.19830011626550       -0.02919658596385       -0.02308470854441
C          109.42255857494702       -0.02351908035214       -0.00318527324935
C          122.88445942932012       -0.09092746979468        0.01053163162323
C          121.65640019897697       -0.09095027952710        0.02258646947296
C          120.31167565466549       -0.08381810514338        0.03613758628083
C          119.08801481703706       -0.06794955534254        0.04803925366385
C          124.22939450956618       -0.08091100522355        0.00165258382358
C          125.45287615839895       -0.06186105494505       -0.00432826325606
C           78.77439919501320        0.13114601299342        0.05634871648718
C           79.40546567037559        1.06990339616753       -0.78189450526301
C           78.76008883798467        2.00172757451790       -1.63559278114360
C           79.72767557787620        2.73406423241208       -2.26710622545301
C           80.99304477602411        2.27439409299269       -1.81043430971919
N           80.74758239785793        1.26319556881359       -0.92096626864162
C           82.25548308496668        2.73462914557111       -2.20514612289142
C           83.47866656076643        2.21813223892202       -1.77451645673589
C           84.76878576342401        2.75790031908821       -2.16588964456871
C           85.70170340448725        1.99817498259050       -1.55592931664072
N           83.64933306260234        1.16629440348604       -0.92695530213636
C           84.98011588299906        1.00492927197395       -0.78498510880397
C           85.62964809475267        0.02352250933073       -0.00912534005902
C           84.99735353353636       -0.93863331923259        0.80214129457093
C           85.64048212498707       -1.93898508784707        1.57595494725952
C           84.67313025209558       -2.64943769114528        2.23251153137975
C           83.41067770889867       -2.09732596643486        1.88273747763095
C           82.14969251900004       -2.52336835288012        2.31745347597214
C           82.13477403330316       -3.63212826386747        3.30232780292746
C           81.52293817908725       -4.84932172873018        2.99180823356170
C           81.51716207760329       -5.88174691677554        3.91159758254163
C           82.11798933117812       -5.71506506416801        5.16077752827430
C           82.08594226554848       -6.85094410875801        6.11330177476422
O           82.68507920185407       -6.58640288749571        7.28410491559149
O           81.57744225717860       -7.91814397396207        5.88210203433363
C           82.72716448478151       -4.50049227309933        5.47704171862599
C           82.73708878380324       -3.47061735677044        4.55272409955707
C           80.92645701466815       -1.99304435461595        1.90355262619584
C           79.63893140770823       -2.43403893135442        2.41013351373195
C           78.70530973397588       -1.69803179474379        1.77286745171103
C           79.42420064195657       -0.80047460433466        0.89000270374077
N           80.75481253280790       -0.99341089152469        0.99577326178620
N           83.65709884809645       -1.07303904587687        1.00835372786230
C           82.27502515560045        3.86633371844944       -3.16319535785251
C           81.70986955272900        5.09661505524319       -2.81698893350936
C           81.73349520477740        6.15169730003229       -3.71035437808147
C           82.31728296180303        5.99513152553009       -4.96883328784321
C           82.31618645483164        7.15502527197569       -5.89237402325811
O           82.90369741573126        6.90270566192100       -7.07165910291311
O           81.84016124372076        8.23071722573648       -5.63229191007655
C           82.87963528463828        4.76778153760106       -5.32082813715591
C           82.85930433994760        3.71465749682789       -4.42327520897377
H           77.69183263808335        2.09021508344641       -1.74970904111976
H           79.57980053998013        3.51657560908245       -2.99321427744182
H           81.46694737981991        0.73112378006654       -0.44277714732209
H           84.91886014640309        3.61065082271639       -2.80780093866305
H           86.77542039258726        2.08605368992835       -1.59941999836725
H           86.70684368385579       -2.09166938813620        1.61581824907418
H           84.81883654602761       -3.48870229058302        2.89270795076676
H           81.06709669516408       -4.98500886512273        2.01773652327231
H           81.04962260784546       -6.83122797878453        3.67509291760619
H           82.62095536637108       -7.37461573177314        7.84749357656840
H           83.19124567851391       -4.36506462286522        6.44678887887368
H           83.20003386354756       -2.52276018442518        4.80331239807863
H           79.49167590369518       -3.19456458492467        3.15957095028730
H           77.63295058793020       -1.73201869181322        1.87916625602563
H           82.93933596083517       -0.50137428837049        0.57562021276692
H           81.26858513772703        5.22500449894465       -1.83510930470902
H           81.30257017027313        7.11102640239571       -3.44561870482965
H           82.86271770009211        7.70701198736737       -7.61411133506609
H           83.33051573071120        4.64067095380616       -6.29786826289804
H           83.28527642551738        2.75732289106358       -4.70137795157515
C           94.80059429894229       -0.02636103159125       -0.03390890567921
C           95.42447720119276        0.91057738102787       -0.88074476292116
C           94.77196178921467        1.82202279851493       -1.75043993734758
C           95.73279604962391        2.57449597693375       -2.36893718599019
C           97.00039050141616        2.14668755310273       -1.88880439561944
N           96.76373571726609        1.13215922633390       -1.00058777632402
C           98.25788766205869        2.63899514251273       -2.26029030271980
C           99.48549072997326        2.14698283636381       -1.81432859762776
C          100.76993089946636        2.71247735667709       -2.18707230843283
C          101.70936434301950        1.96570382639626       -1.57098690327754
N           99.66536264037846        1.09431547890358       -0.96937068216217
C          100.99701197099716        0.95625441495792       -0.81260373054214
C          101.65506099517661       -0.01555718849783       -0.03161861875111
C          101.03127360127390       -0.98356627328955        0.77956671139312
C          101.68383948848974       -1.96845845931058        1.56511126134448
C          100.72283865439564       -2.68522664283680        2.22442123478475
C           99.45512986770474       -2.15323893358169        1.86359025846321
C           98.19764206261699       -2.58991542171159        2.29867287645525
C           98.19128505591910       -3.68090565752560        3.30314622889640
C           97.59268458878667       -4.90987702998828        3.01374099515517
C           97.58937715124831       -5.92294910520497        3.95482788593392
C           98.17952264217030       -5.72484533540854        5.20453441919220
C           98.14642131429815       -6.83925669608653        6.18203660058870
O           98.73698274189047       -6.54583929786600        7.35030177851703
O           97.64433780657907       -7.91387827495370        5.97145639067874
C           98.77747978450752       -4.49920771020817        5.49888558343591
C           98.78504536045918       -3.48878545965816        4.55332611276163
C           96.96999222622519       -2.08313195082991        1.86976707128256
C           95.68542852128293       -2.53207337805723        2.37648440696856
C           94.74600402540999       -1.82157594691329        1.71891152085573
C           95.45849290023129       -0.93119676229866        0.82383794066787
N           96.79028610177126       -1.10264041235025        0.94204942210778
N           99.69190779273168       -1.13460757426789        0.98004956075818
C           98.26381888737623        3.78225653310858       -3.20472622762974
C           97.66358631269230        4.99296845627330       -2.84816798122308
C           97.67268171951211        6.06174913504650       -3.72518984197950
C           98.27645627208891        5.93848839614294       -4.97795128360940
C           98.25780312059962        7.11195743594024       -5.88409607535901
O           98.86471097527163        6.89209107196617       -7.05993997306475
O           97.75216382905589        8.17148601938646       -5.61368821860675
C           98.87356525338717        4.73076100509826       -5.34041978474228
C           98.86809063265790        3.66390577513140       -4.45880668839550
H           93.70400290536155        1.88511370226263       -1.88270169916126
H           95.57913720444051        3.35039679552366       -3.10093283541484
H           97.48715465555296        0.62065530070076       -0.50635754585550
H          100.91191347037706        3.57116771078143       -2.82288347384802
H          102.78175994242120        2.07306002915416       -1.60152812704816
H          102.75191905774012       -2.10658197341645        1.61146761142422
H          100.87632735161689       -3.51607349809253        2.89346064270290
H           97.14436288862812       -5.06966295988621        2.03982267990105
H           97.13102813150644       -6.88097309841720        3.73530249778177
H           98.67291388798014       -7.32153144099776        7.93084465110272
H           99.23370723248905       -4.33958020628378        6.46868505945123
H           99.23838034786714       -2.53200869988945        4.78708857008776
H           95.54344719760368       -3.27981694627339        3.13967502328240
H           93.67349515269140       -1.86858837097040        1.81883114084131
H           98.96842372210885       -0.57659908982277        0.53910395832034
H           97.20588216863914        5.09517900957371       -1.87072206132434
H           97.21467017767783        7.00605734676675       -3.45202193703994
H           98.80997289492372        7.70332984188236       -7.59075584846523
H           99.33987371140677        4.62956817243028       -6.31327018028568
H           99.32109467480089        2.72166106223518       -4.74558021996144
C          110.82630075534364       -0.01601799330832        0.01840811619908
C          111.46083265364254        0.91773037893885       -0.82359195488602
C          110.81998014685105        1.83026224754932       -1.70090577204739
C          111.78938285441426        2.57856987051030       -2.31070753681307
C          113.05092424967931        2.14763533133305       -1.81686735920405
N          112.80190565595534        1.13475844524831       -0.93011847568889
C          114.31340169218358        2.63727960978474       -2.17337265036688
C          115.53516690425865        2.14326432931772       -1.71238351749059
C          116.82411882803413        2.71100581195701       -2.06603315860951
C          117.75616427981080        1.95784539392553       -1.44660686540029
N          115.70435353225456        1.08441841008362       -0.87412111958688
C          117.03493017237058        0.94122363373724       -0.70632101857112
C          117.68239895109436       -0.04877418696025        0.05907796977963
C          117.04828268028906       -1.02617058550060        0.84948390576765
C          117.68921611426416       -2.03034182775298        1.62042697740208
C          116.71986020698283       -2.74667604945020        2.26764018118529
C          115.45811513809258       -2.19527903958729        1.91430006121257
C          114.19546861894881       -2.62268039599250        2.34392237758865
C          114.17342144904681       -3.72722255100676        3.33290535128764
C          113.54759899498764       -4.93905249448776        3.02847021038429
C          113.52330645837321       -5.96428905043194        3.95580991961910
C          114.12000924085045       -5.79611017760207        5.20678944855256
C          114.06069406106353       -6.92131031341105        6.17039727978284
O          114.65619402559923       -6.65573158241911        7.34290837367955
O          113.53451272960865       -7.98162961008618        5.94635199721411
C          114.74699838160748       -4.58865227068892        5.51547017186326
C          114.77505393044075       -3.56584504359663        4.58365075901980
C          112.97368860071579       -2.09648143165255        1.92095347965487
C          111.68416040209513       -2.53354984617677        2.42598177597302
C          110.75241974450776       -1.81130131081986        1.77037983757005
C          111.47451309931283       -0.92537557844645        0.87866860486681
N          112.80452435549975       -1.10954537272506        0.99833280365866
N          115.70675463922139       -1.16634131805811        1.04644072134023
C          114.33232677717842        3.77578696838344       -3.12324652637723
C          113.72658647152255        4.98861757355830       -2.78370727637826
C          113.74299165046175        6.04945425335201       -3.67024804170082
C          114.35941751561576        5.91580438001866       -4.91577194238867
C          114.34493201467215        7.07962529458416       -5.83425985011765
O          114.95687022167193        6.84720138244013       -7.00498793178405
O          113.83806036376807        8.14199090071816       -5.57761799635642
C          114.96387879104594        4.70651592790017       -5.26044617438880
C          114.95150489792547        3.64790216122253       -4.36913406089849
H          109.75359643251355        1.89654846013191       -1.84394642628855
H          111.64547827740826        3.35384281549161       -3.04533150336376
H          113.51833494034290        0.62030520759502       -0.42884057506000
H          116.97328246179563        3.57552843016394       -2.69226138125113
H          118.82888948950507        2.06452456283831       -1.46449091866924
H          118.75577325906588       -2.18014687051877        1.66605539102734
H          116.86367481401949       -3.58935220296161        2.92393099693201
H          113.09349579083934       -5.07553849502348        2.05369943968217
H          113.04238528833505       -6.90841558614115        3.72481981518152
H          114.57249367728890       -7.43648747505683        7.91406368430973
H          115.20899159719045       -4.45250408974663        6.48609984299854
H          115.24972553616450       -2.62258547931776        4.82958267128550
H          111.53371655764917       -3.28145852856513        3.18735796200409
H          109.67945396658735       -1.84747298729625        1.86981175818628
H          114.98997490374394       -0.59410318251553        0.61284153802061
H          113.25802925862820        5.09861203007218       -1.81227914772994
H          113.27991622727174        6.99513439342722       -3.41071956406437
H          114.90384805711321        7.65247341106419       -7.54493783905907
H          115.44070388139423        4.59746273633525       -6.22731374625655
H          115.40985078994193        2.70417082970349       -4.64220806944256
