126
 energy: -239.913190549329 gnorm: 0.000618056575 xtb: 6.5.1 (b24c23e)
Ni          17.04573831535976        0.01673323342089        0.05951717944813
C           13.66014509537965        0.00700665813118        0.20590629387528
C           14.30519952194984        1.22647667100354        0.19012277461786
C           13.62635874522837        2.48663030591867        0.18784826588589
C           14.58066476240029        3.44249797614635        0.27410856780450
C           15.84196211411000        2.76408651450197        0.35033910807875
N           15.66443393756932        1.40668190559966        0.24988170378582
C           17.05585641420335        3.39700179963018        0.58304596954548
C           17.07132212343592        4.86458305905932        0.79121939304330
C           16.36881360967542        5.44057363072405        1.84566987863140
C           16.39051938637525        6.82134931868519        2.03857427788140
C           15.62421513200099        7.37488172679088        3.18336445673131
O           15.72149893899450        8.70728922874400        3.29949114304401
O           14.96981305139570        6.71234866934642        3.94706490473936
C           17.11566214728376        7.63767319011445        1.17066651928420
C           17.81468479730360        7.06643383451707        0.11883801727203
C           17.79646701489477        5.69187679719964       -0.06998276586191
C           18.26055361785065        2.70728155506951        0.64247021817638
C           19.51143573742748        3.31211047188112        0.98638894074606
C           20.46065456591591        2.35597735905312        0.84167577991549
N           18.43819528546632        1.37872044947465        0.33380851178167
C           19.78951913948299        1.17241872010134        0.40802572105143
C           20.45437314968740        0.00934710734287        0.01245254269745
C           19.77431198574147       -1.14358698571277       -0.38823147428570
C           20.42754080890589       -2.31550840047384       -0.87697671735751
C           19.46740502133933       -3.25737046582390       -1.04286203543424
C           18.22960028322237       -2.65940656034068       -0.64391906242892
N           18.42388670684783       -1.34311995447119       -0.29256033195875
C           17.02717163999326       -3.34909857615334       -0.55254385002571
C           17.02164751035323       -4.80696099760331       -0.82128465000314
C           17.79211466173753       -5.67283437141605       -0.04171683411145
C           17.78831013855503       -7.03866529550916       -0.28806877769723
C           17.01921841865467       -7.55661744797402       -1.31668072694794
C           16.24576183075114       -6.70155886787064       -2.10325182855306
C           15.43655369523253       -7.29528797409192       -3.19713979068982
O           14.71990245461588       -6.39438531912110       -3.88473290553107
O           15.40873047946839       -8.47022097006508       -3.46043315447236
C           16.24650761196225       -5.33068252704135       -1.85368501858265
C           15.83265178788750       -2.72811771792832       -0.21027096591824
C           14.58632381590617       -3.41731653977342       -0.04267759079191
C           13.64157417294070       -2.47214703629979        0.17285083227178
C           14.31158742009656       -1.20767416479090        0.14547246034800
N           15.65995661290559       -1.37644904157263       -0.04873326609764
H           12.57775034688961        0.00309222071512        0.25896914962585
H           12.55620986450568        2.60401203640814        0.12615597075113
H           14.45515402032235        4.51290224642338        0.28893120484921
H           15.81117271330632        4.82045738643482        2.53894329812644
H           15.19636882889846        8.98937895535676        4.06606424160744
H           17.12915991557121        8.71033953829044        1.32110797250426
H           18.37821603018607        7.69522468061364       -0.56120818597361
H           18.33728612396474        5.25188196657970       -0.90046125440001
H           19.63590578519601        4.33354173035509        1.30702648015093
H           21.52244079474542        2.43262643659812        1.01011634332809
H           21.48504142404010       -2.39267057498556       -1.07044834363514
H           19.57771315734099       -4.26585618666876       -1.40683474923032
H           18.38540133105876       -5.27047203251903        0.77179330176054
H           18.38785057103584       -7.69890861565683        0.32820609784697
H           17.00544506918794       -8.62070119545975       -1.52382350018972
H           14.22274810575483       -6.85948569818733       -4.57707920863215
H           15.65522072166921       -4.66759428263223       -2.47402246400431
H           14.46408478798024       -4.48747921878380       -0.08363592805209
H           12.58296982807373       -2.59928361166778        0.33408370021905
Ni          27.89708461173249       -0.03543794123423        0.05196649266767
C           31.28273860427073       -0.07376415195958        0.19251399966180
C           30.63765964758690       -1.22135620257494       -0.22023418661482
C           31.31651188534651       -2.41186265707349       -0.63335359941739
C           30.36221183409910       -3.34357893194936       -0.86364448175023
C           29.10090006118372       -2.72712697239277       -0.57038693400622
N           29.27841307057421       -1.41119981066825       -0.22251085072788
C           27.88702463796266       -3.40136812635430       -0.55688133245287
C           27.87158434394163       -4.85658305883477       -0.83881965226198
C           28.57395743927172       -5.74505929825402       -0.02986107985810
C           28.55236857280908       -7.11320992193821       -0.29803171622720
C           29.31915255348513       -8.00995803706637        0.60331661163729
O           29.22147569590684       -9.30731720041394        0.27858894810936
O           29.97296749614087       -7.63277154620678        1.54172027873755
C           27.82727454025290       -7.60174593002403       -1.38478465735408
C           27.12836261997729       -6.71861875021466       -2.19279520441900
C           27.14657348387788       -5.35766232974455       -1.92288090865007
C           26.68230062477280       -2.76879507770055       -0.27578334985093
C           25.43141960832560       -3.45274015422679       -0.14799920948305
C           24.48219486010725       -2.50170395088909        0.02708113729813
N           26.50465725458761       -1.41224344606889       -0.13406171563779
C           25.15333250423297       -1.24142829745204        0.00326563486584
C           24.48851155919220       -0.01292764125252        0.00872524600573
C           25.16860587257672        1.20762788964525        0.00595963503163
C           24.51536844382965        2.47486770746274       -0.07377933416065
C           25.47549716377457        3.41933391213030        0.07659363849570
C           26.71331717188625        2.72396506554994        0.25862505195072
N           26.51904449604403        1.36503064710865        0.16151858199474
C           27.91571718481014        3.34616422305503        0.57000463442288
C           27.92122118685802        4.81195458810272        0.79147021418898
C           27.15076045785588        5.37619977764026        1.81083557516288
C           27.15454637360190        6.74769003200005        2.02343620712148
C           27.92361958762932        7.57281997432868        1.22000134224371
C           28.69709722887659        7.02107748548755        0.19756714842967
C           29.50639330889438        7.93912510574401       -0.64276968913182
O           30.22297364231475        7.31177933118752       -1.58666225718784
O           29.53409843458650        9.13569198023690       -0.50851530653543
C           28.69635275423117        5.64377153523822       -0.01365332235683
C           29.11025054818442        2.64754153696339        0.69105550349483
C           30.35655210293547        3.24439294167307        1.07435234410205
C           31.30130726771257        2.28060826222300        0.96989212296978
C           30.63131914348826        1.09422166864859        0.53153177056769
N           29.28295625193570        1.31709384035330        0.40300559058967
H           32.36512924787657       -0.08741496840531        0.24401721247336
H           32.38666747152136       -2.50272139766470       -0.72986855949060
H           30.48773865765271       -4.36028813362156       -1.19872953894288
H           29.13160732787206       -5.38504077327693        0.82778914771624
H           29.74626608452094       -9.82401906190213        0.91145741789057
H           27.81385490854388       -8.66480554121697       -1.59253075204728
H           26.56485375270767       -7.09116192536809       -3.04078228591371
H           26.60575385363896       -4.67082189873537       -2.56440282299618
H           25.30695249354229       -4.52289383047099       -0.17810577213706
H           23.42040740825510       -2.62910924014510        0.16129827302642
H           23.45785540306726        2.61090820827030       -0.23143276553824
H           25.36516989335542        4.49138120849282        0.06151374408024
H           26.55749086603122        4.73049512646370        2.44862826020274
H           26.55503462364031        7.17081125690479        2.82137858396923
H           27.93741183542788        8.64627121715776        1.37127493496366
H           30.72007742022536        7.97727544799776       -2.08947293582073
H           29.28764723941819        5.21928190773852       -0.81634021927066
H           30.47876430734073        4.26938695534202        1.38470589849390
H           32.35989415252965        2.34819624439437        1.16387392034994
C           21.86346876063122        0.00221423587068        0.00714991642721
C           23.07941510930668       -0.00442087083089        0.00602158341926
