300
 energy: -520.905708659273 gnorm: 0.000821184396 xtb: 6.5.1 (b24c23e)
C           66.45502533121052        0.08746355542221       -0.02759908013256
C           67.06384756085831        1.33311896881915       -0.10650186249737
C           66.41146735105644        2.59736641888554       -0.15339267909617
C           67.37295927804075        3.56507992623320       -0.22678784004385
C           68.64420340045646        2.92231095587258       -0.23960382637360
N           68.40677104123898        1.57979609061880       -0.15708992628361
C           69.90765568615950        3.52079896676179       -0.29761814548862
C           69.94094820936570        5.00025811348656       -0.38696401250202
C           70.55679275822646        5.75364415894246        0.61546489930316
C           70.58543221981925        7.13459047003164        0.54251794255448
C           69.99965031286112        7.79139612140924       -0.54388269196995
C           70.02944321798617        9.21240537755624       -0.62374650690250
N           70.04923554643049       10.36112501899572       -0.68970600762582
C           69.38490062646952        7.04215431687275       -1.55138184629644
C           69.35503205149105        5.66149962758617       -1.46888088437117
C           71.12371003724103        2.83235544326522       -0.27415333519438
C           72.41994555630158        3.47408737623908       -0.40092889226679
C           73.34059207151257        2.49025056009018       -0.33641885451572
N           71.27846144029996        1.48580998835239       -0.15537200603537
C           72.60665198166606        1.24935945344569       -0.17949068541299
C           73.24246652554615        0.00038812947217       -0.04361741862884
C           72.60900176908211       -1.24711394896562        0.10002882369111
C           73.25307448006839       -2.50464452595335        0.24566840182505
C           72.28671466938034       -3.46860679804535        0.32223476635417
C           71.02049625895647       -2.82927994782614        0.21388572805012
N           71.26688001993216       -1.48770347895746        0.09223268518636
C           69.75824897771120       -3.43222894034824        0.24826533017097
C           69.72780224108043       -4.90996526969990        0.35560839269300
C           69.11244723484533       -5.52989850715291        1.44584791001960
C           69.08354524969074       -6.90902212741230        1.54865160533798
C           69.66829556625262       -7.69874173800485        0.55415251777552
C           69.63794518837186       -9.11838344972737        0.65476923863821
N           69.61465093999698      -10.26617953298566        0.73346041551992
C           70.28333389107726       -7.08362614751979       -0.54036507353516
C           70.31355439711302       -5.70384744706305       -0.63364181668560
C           68.54086855700744       -2.74610442873741        0.18275783333688
C           67.23644903959223       -3.39062081085605        0.16761295323450
C           66.32304531446231       -2.40218989223769        0.09291532742857
C           67.06811670168561       -1.15599632801972        0.04982775321691
N           68.40034960951218       -1.40217986701265        0.09825131978592
H           65.36975022717552        0.09647479775259       -0.02646583313883
H           65.34234800353869        2.73485263538168       -0.12623723980971
H           67.22117775183764        4.63169538280693       -0.26087777000603
H           69.13255298898405        0.87145561884048       -0.12998098979933
H           71.00120493963482        5.24844260959297        1.46553391366630
H           71.05981605891127        7.71226993087389        1.32717785830683
H           68.93386698534621        7.54751626096765       -2.39734767701291
H           68.88965732530484        5.08408106502550       -2.25979457513626
H           72.58213603888726        4.53131311708218       -0.53472811782519
H           74.41437350185608        2.57231241470215       -0.38841449590081
H           74.32086213486068       -2.64571734174104        0.28653278164626
H           72.43506207712889       -4.52832994368359        0.45063030419227
H           70.54421513139900       -0.78020165423401        0.00914884801000
H           68.66943993422446       -4.92109089760330        2.22582245047173
H           68.60945668675021       -7.38226820853814        2.40053116458095
H           70.73392750359842       -7.69235607034024       -1.31554317842040
H           70.77885570085293       -5.23156791577531       -1.49156695140032
H           67.06789023344523       -4.45503501652641        0.19697088447728
H           65.24752312931226       -2.47731526861180        0.05934444916277
C          116.81018009386770       -0.09573305249135        0.04764634766998
C          116.20478770473288       -1.29992298136398        0.38262914029634
C          116.86084338953656       -2.50804429448702        0.75133293268647
C          115.90219764635005       -3.45016289855021        0.99627983019793
C          114.62921271163032       -2.85018802411125        0.77589698236904
N          114.86259649226403       -1.55344990360128        0.41623889188523
C          113.36739132570730       -3.43826349097477        0.91920322951053
C          113.33843921673461       -4.87055509684144        1.30014135843337
C          112.72185087303058       -5.27540108264869        2.48655887823077
C          112.69181356858886       -6.61089517498901        2.84537884252047
C          113.27727464066008       -7.57277904981047        2.01665497141832
C          113.24371670517256       -8.94857031752349        2.38075653980932
N          113.21389086654594      -10.06078797558555        2.67452978674768
C          113.89477303065343       -7.17325282280463        0.82778760908043
C          113.92578641146368       -5.83516617562435        0.47802805335410
C          112.14930815846758       -2.78108395854911        0.72616057620121
C          110.85431953189148       -3.43127504534623        0.81755818467767
C          109.93161837845001       -2.48230138958032        0.55703668954278
N          111.99142250934861       -1.46957834987988        0.39848172795511
C          110.66325679310802       -1.25717552988221        0.29807360195239
C          110.02434850262642       -0.04468963384135       -0.02752275081906
C          110.65429452683675        1.17077919357189       -0.35110523792257
C          110.00581322700467        2.40153836573560       -0.63752543384157
C          110.96924235930679        3.33984497331553       -0.88354414216487
C          112.23788371639286        2.70773309726485       -0.76203832659722
N          111.99553730756243        1.40028838964608       -0.43402473472160
C          113.49903623628440        3.29638731364635       -0.90638593229051
C          113.52765724610131        4.73135534766469       -1.27470141698215
C          114.12700220400723        5.66560530408532       -0.42610553097869
C          114.15152374509674        7.00763460640702       -0.75977679538804
C          113.57828075242887        7.44243462198011       -1.95854914910550
C          113.60139439453052        8.82282510350742       -2.30553759825724
N          113.61666041237507        9.93924440794755       -2.58393245311218
C          112.98062254643929        6.51141411549148       -2.81327550739455
C          112.95459808388168        5.17148286967304       -2.47031141235442
C          114.71775681001962        2.63415853031752       -0.72271032031716
C          116.02146459931448        3.24515724764391       -0.93275385448855
C          116.93708255206067        2.29328511785412       -0.66348080967940
C          116.19429468567768        1.09929859404509       -0.29943154636116
N          114.86105540320763        1.33949293611148       -0.35385917524824
H          117.89543846736167       -0.09883166073157        0.05938329478381
H          117.93033234443375       -2.62594742060003        0.82168906694965
H          116.05707619968560       -4.46934262393512        1.31118682827011
H          114.13458275491490       -0.87741507093579        0.21065270946805
H          112.27738736349117       -4.53120323373075        3.13766192375872
H          112.21585871890099       -6.91652718584660        3.76975921723680
H          114.34625665244410       -7.91626893213625        0.18082614113504
H          114.39242978355536       -5.53188636197737       -0.45246567370557
H          110.69400601026226       -4.47500017131844        1.03398023213913
H          108.85862957431824       -2.58205941997011        0.52176327892050
H          108.93756819771980        2.54545362366630       -0.64118243919945
H          110.81719197722445        4.38123830632396       -1.11567171311019
H          112.72084926838005        0.71170452088628       -0.26231795047952
H          114.56032853167801        5.33425928405785        0.51077537373538
H          114.61250843302565        7.72679195719050       -0.09288580232193
H          112.53952189716607        6.84406013697927       -3.74560168164397
H          112.50255019935430        4.45146716143441       -3.14319329546481
H          116.18806138780160        4.25970203753124       -1.25709916767930
H          118.01287795635272        2.35941005181621       -0.70596562024757
C           74.65345942184125       -0.01499822346595       -0.04919674352781
C           75.86981538107963       -0.03169358886718       -0.05255156344842
C           85.56342685888065       -0.07651718903229       -0.06046079075472
C           86.78191017743261       -0.07180257710469       -0.05555275159788
C           96.48646659703672       -0.02903726912953       -0.03466574427516
C           97.70482167750521       -0.02622754335975       -0.03346566930043
C          107.39780796476383       -0.02436579680319       -0.03649237758658
C          108.61445003322758       -0.03495749482257       -0.03312086895821
C           77.27973210360079       -0.04411666975859       -0.06050247774178
C           77.91013895921547        0.87864714493925       -0.91517669921221
C           77.27167886723009        1.82786306355481       -1.75467173197027
C           78.24063657575955        2.47824335257262       -2.46863743302127
C           79.49966845053852        1.93464165789573       -2.09413209548528
N           79.25089579944284        0.98665139120770       -1.13901974383458
C           80.75840328879592        2.27630702491400       -2.60446960176814
C           80.77963828752662        3.28021857395262       -3.69518281063416
C           80.10954644288647        3.03991209714901       -4.89716654851208
C           80.13300520035330        3.97495211796456       -5.91630628821305
C           80.82562133779066        5.17774533473530       -5.74845476270873
C           80.84912109985051        6.14182224370017       -6.79565499726966
N           80.86494466463111        6.91778771605470       -7.64520732427544
C           81.49531858387796        5.42466518726502       -4.54636317416110
C           81.47313901660193        4.48229592547769       -3.53411416346316
C           81.97863797863099        1.74933731161414       -2.17734042253384
C           83.25146338317860        2.05068044238539       -2.80686842816139
C           84.19126137997876        1.38707980205032       -2.10227435799040
N           82.16439937606754        0.89560941833374       -1.13293739173316
C           83.49321766192334        0.68158800175822       -1.04686670667444
C           84.15623719001242       -0.08087654667555       -0.06291734514306
C           83.52160897116751       -0.85371690940300        0.92964186767834
C           84.15329386744000       -1.58028642789696        1.97092461336060
C           83.18309977940498       -2.23643170682406        2.67788721721909
C           81.92801428429101       -1.93129670242402        2.08491227773652
N           82.18149546799417       -1.07733150987208        1.04511434563878
C           80.66967030913055       -2.40312396924580        2.47898646881151
C           80.65362616938970       -3.39388619194561        3.58164450858943
C           81.31917947819989       -4.61487776553272        3.44746220926070
C           81.30185404524607       -5.54375091070376        4.47235555230396
C           80.62040501704398       -5.26372169886869        5.66047916460095
C           80.60167513393858       -6.21579655721647        6.71870029489082
N           80.58350272190155       -6.98500703319853        7.57434499780665
C           79.95683789386155       -4.04129216238386        5.80194872592823
C           79.97293983484316       -3.11988097652628        4.77050591193652
C           79.44666122995021       -2.01508630882432        1.92766211734890
C           78.16634127826403       -2.57700440458758        2.31983746467986
C           77.22698860319072       -1.91793758883309        1.61043425540067
C           77.93454309818731       -0.96500850371396        0.77863557328387
N           79.26638641864947       -1.06088582844532        0.97498657094995
H           76.20681593032552        1.98725796427939       -1.80254828971289
H           78.09729735230985        3.26900086544727       -3.18667973858336
H           79.96521944856993        0.43919895479030       -0.67080229096170
H           79.58324825568040        2.10245087157574       -5.03752321805919
H           79.61692446480109        3.77802876391683       -6.84867197561418
H           82.03040370017006        6.35730392820587       -4.41121477481124
H           81.98444007230789        4.68158579691761       -2.59913641437880
H           83.38470222129023        2.66903025299109       -3.67966712411988
H           85.25441820253231        1.34881807080573       -2.27358240366175
H           85.21385370456389       -1.58679714840924        2.15931527727603
H           83.32244086978069       -2.86539206413266        3.54184072569595
H           81.46947381631223       -0.66695122059649        0.45041716209906
H           81.83755596921922       -4.84179464208419        2.52260163847250
H           81.81430503361391       -6.49170618027592        4.35748490583271
H           79.43144573089303       -3.81892940723321        6.72330889075779
H           79.46755730361882       -2.16810116170581        4.88868933731312
H           78.02686559831137       -3.37473507694116        3.03120272706089
H           76.15684612160061       -2.04771517674783        1.62997112758706
C           88.18878281588339       -0.06354050692759       -0.05468445228776
C           88.82015875573146        0.89738260971684       -0.86958991579756
C           88.18847098480970        1.90749171162386       -1.63819991865234
C           89.15726812061925        2.57514805132011       -2.33704744367743
C           90.41063866653909        1.98702684577511       -2.01724456629095
N           90.15910043213535        0.99515886722403       -1.10792336878153
C           91.66546371895558        2.32819862311956       -2.53874886248631
C           91.68001426658071        3.35592250340865       -3.60611802368913
C           90.96651920487356        3.16094649307115       -4.79148745083012
C           90.98424899929113        4.11735762773267       -5.79062422093659
C           91.71457436030988        5.29709651255306       -5.61897138480452
C           91.73075732535644        6.28433472554069       -6.64447955285466
N           91.73831522843309        7.07919892314296       -7.47648668306073
C           92.42770418201245        5.49900410071282       -4.43350726254450
C           92.41078933280708        4.53548323419549       -3.44142480731432
C           92.88725703514585        1.78337527683006       -2.13878396371735
C           94.15446977511472        2.08100695177968       -2.78140500191389
C           95.10015463495122        1.41702725629083       -2.08468567878863
N           93.08094809338081        0.92718284986205       -1.09824023760944
C           94.41070313523447        0.71456385345328       -1.02187371582593
C           95.07955650873301       -0.03763501770372       -0.03443165619446
C           94.44773503943588       -0.80538158657972        0.96398659218798
C           95.07833578497464       -1.51445098111629        2.01752587085865
C           94.10944950265501       -2.17968090067405        2.71856891862282
C           92.85736293324150       -1.89906523320723        2.10792677980306
N           93.10955385708077       -1.04513442228223        1.06814544956825
C           91.60308915663286       -2.40671229480895        2.47107666694374
C           91.58642170441640       -3.41008308689525        3.56137402686030
C           92.30748045412021       -4.60115344142697        3.44507217532451
C           92.28805621938334       -5.53926306874640        4.46142536759778
C           91.54817775619382       -5.29922415264583        5.62314314509229
C           91.52982668549015       -6.26194011863715        6.67167099718071
N           91.51833948863722       -7.04393341878079        7.51571560412759
C           90.82727826577397       -4.10767410096247        5.74629717392001
C           90.84599295772038       -3.17707917688350        4.72332506882974
C           90.38288301852570       -2.04723973959037        1.89506731383758
C           89.11844230540491       -2.68274768074009        2.21840284044351
C           88.17297830279725       -2.03291922751084        1.50818088919037
C           88.85939833125117       -1.00488387026222        0.75321241668284
N           90.18804325555124       -1.05825033414260        0.98005594681364
H           87.12932999649583        2.10367114936310       -1.64313368672972
H           89.01740112016179        3.40935827508416       -3.00484162125978
H           90.87053643936409        0.41660109094428       -0.67419218313121
H           90.41056849472537        2.24129204229182       -4.93545540404107
H           90.43439175863359        3.95506325106395       -6.71026498827951
H           92.99216639042631        6.41371519566812       -4.29537827840316
H           92.95501001729338        4.70087924242337       -2.51850121315646
H           94.28031669448599        2.69660962316866       -3.65724533494830
H           96.16193185705193        1.37774934266611       -2.26498056747684
H           96.13675399990298       -1.50392154814626        2.21791107236006
H           94.24842988078301       -2.79963893432381        3.58905957493634
H           92.39884838995671       -0.64738044376883        0.46341997960114
H           92.87072909605139       -4.79872508841088        2.53993577351710
H           92.84408626263028       -6.46393305092299        4.36028244605339
H           90.25547074704610       -3.91641868016563        6.64677915749945
H           90.29547873123022       -2.24893557563762        4.82735335305865
H           88.99448829378687       -3.52361995105176        2.88133648094107
H           87.11327228191469       -2.22471639757154        1.47005956913362
C           99.11214401797184       -0.02184899106199       -0.03572494890582
C           99.74157860828844        0.96574823398837       -0.81904264426845
C           99.10278741353177        1.99218268524614       -1.56051240999232
C          100.06949450473496        2.70435667072374       -2.21628439344446
C          101.32928793701386        2.13019554875436       -1.89519595982194
N          101.08187532986146        1.09510093660698       -1.03375362800118
C          102.58642825075923        2.53770745295389       -2.35920236049657
C          102.59549728787030        3.62682220978229       -3.36503931174887
C          101.94516416207749        3.46220717295646       -4.59055214443592
C          101.95847091591953        4.47085004019997       -5.53698590257634
C          102.62043393260771        5.67303266617200       -5.27047800248235
C          102.63485239906180        6.71358791616942       -6.24190855496891
N          102.64691760540347        7.55356438736287       -7.02827359288143
C          103.26837657221145        5.84503879294983       -4.04362890650341
C          103.25650580889757        4.82958587912997       -3.10443213777775
C          103.81338046622425        2.00443402575380       -1.95935866092450
C          105.09224911606690        2.40592666866605       -2.51808911489242
C          106.03448329778440        1.69565591876984       -1.86399334652498
N          103.99806427826938        1.04961274190029       -1.00768626778378
C          105.33004295700248        0.85575352728518       -0.91578633971908
C          105.98888950311419       -0.02248277475343       -0.03446392837549
C          105.36368985254161       -0.91104054383058        0.85981686780607
C          106.00843897945106       -1.75646550123553        1.79928630541982
C          105.04276179021640       -2.46443027664636        2.46111495802346
C          103.77940134717345       -2.07790291940742        1.93645170162079
N          104.02316543721335       -1.12667001195555        0.98302426103337
C          102.51994960282666       -2.56528670289373        2.30748327423494
C          102.50167770805379       -3.63789180932080        3.33068347504461
C          103.15049410703384       -4.85384904618860        3.10331432242656
C          103.13429170946284       -5.85119949331634        4.06185627479538
C          102.47052282847017       -5.64690985571450        5.27515481686005
C          102.45779172883857       -6.66888453509353        6.26611899709575
N          102.45048618638394       -7.49335819040805        7.06878825492019
C          101.82007441363494       -4.43145401161340        5.50811912085602
C          101.83490513755973       -3.44121986427164        4.54267909864196
C          101.29605391565958       -2.12596340335656        1.79922019870994
C          100.02143856483970       -2.73733705924494        2.12912482541575
C           99.07916957133929       -2.03397845822866        1.46781703724707
C           99.77735892089643       -0.99549917641891        0.73748319976016
N          101.10817689568088       -1.09046791258654        0.93529816489025
H           98.03996644426589        2.16734202252254       -1.57707645809594
H           99.92476662413310        3.56035271676973       -2.85485650810100
H          101.79789267336415        0.51185754429057       -0.61390693670461
H          101.44243226322146        2.52622166727480       -4.80681669675773
H          101.45847272064012        4.33221041930425       -6.48840605222712
H          103.77883793181252        6.77725213582396       -3.83199019180361
H          103.75013468940340        4.97109652546661       -2.14967105163927
H          105.22879253455207        3.12057744382672       -3.31337940549856
H          107.10368685093633        1.71032869273364       -2.00242762542078
H          107.07423902178409       -1.80365270413113        1.95269942284427
H          105.19128709598969       -3.18252995706780        3.25084169083023
H          103.30444956422375       -0.64645021586156        0.45201232489956
H          103.65479989599642       -5.02222183352668        2.15842457959342
H          103.63463712031535       -6.79424618827655        3.87553346997423
H          101.30665913807552       -4.26844970500214        6.44846012848536
H          101.33971036755780       -2.49536860912430        4.73111930719609
H           99.88881835738044       -3.59955994998902        2.76227165220023
H           98.01376769711364       -2.19463353962890        1.44812381276789
