199
 energy: -407.898264820720 gnorm: 0.000689094315 xtb: 6.5.1 (b24c23e)
Cu          33.99704259076855        0.05315311915893        0.01471849745625
C           30.59243394374565        0.11619022240599        0.05964108332305
C           31.22639966848020       -0.19512393523144        1.25296157366912
C           30.55040045987130       -0.52607789033151        2.47516975844704
C           31.50823479214936       -0.76296439294168        3.40485996299711
C           32.77936862162461       -0.56622752819435        2.76124262284953
N           32.57700793553632       -0.23166192374889        1.45353378215534
C           34.02473020368913       -0.71337555311030        3.37594126760955
C           34.04197864725790       -1.05553304868470        4.81952319258510
C           33.49509483318996       -0.18025381999065        5.76095652487822
C           33.51978663662407       -0.49347805461753        7.11013792689712
C           34.09056352482263       -1.69280537464020        7.50412002970048
S           34.13800828294787       -2.08977094011923        9.21104169583742
O           34.06134994673655       -0.90346291623725       10.01196144242033
O           32.71423763353214       -2.86512882093612        9.31313196379427
O           35.18081532214379       -3.03418582146262        9.48630981847873
C           34.64005789761249       -2.58176028391985        6.59454892420889
C           34.61441319054237       -2.25575075795324        5.24872735871070
C           35.25901442474630       -0.56502053384828        2.73909783609287
C           36.53592295357967       -0.64685902446420        3.39122184595414
C           37.48173812150593       -0.44111950213853        2.44053006672137
N           35.44652887553299       -0.29718121240600        1.41012799279591
C           36.79085506089967       -0.22569525845061        1.20426280165919
C           37.42486114480002        0.00367317838656       -0.02738615733868
C           36.76811271619646        0.24745333548976       -1.24419380357300
C           37.43454476916982        0.43983204156210       -2.49751145656934
C           36.47183719419094        0.66717826483737       -3.42622448197610
C           35.20942679892135        0.62358337177762       -2.74304804372265
N           35.42171991725165        0.35521689409210       -1.41786836523790
C           33.96455168125576        0.80732596922459       -3.34919597965587
C           33.95353401855342        1.13635852111185       -4.79593220418490
C           33.34883509228789        0.27197133612159       -5.71173727081545
C           33.34045594932643        0.57314607908541       -7.06384329918376
C           33.93961403639033        1.74836254786639       -7.48701501685875
S           33.92405731286762        2.14141939394251       -9.19570769853184
O           34.05503528160799        3.55468555271092       -9.40089803167191
O           35.33490243839739        1.45378163601592       -9.61495568675354
O           32.86133380784656        1.44716630890913       -9.85914259328630
C           34.54086961998402        2.62912415491960       -6.60243251816689
C           34.54724482807749        2.31556967669566       -5.25337618151107
C           32.73139835703470        0.70771667458795       -2.70110211121679
C           31.45188529892064        0.95009051917294       -3.31185933409910
C           30.51091818662082        0.75440329177138       -2.35584022012959
C           31.20610642915710        0.40183772587414       -1.15053716793543
N           32.55138820477486        0.38623213352538       -1.38687131785191
H           29.50767601279286        0.13716135661384        0.07392969181979
H           29.47919879186002       -0.57634272262596        2.59010137549005
H           31.37383129943975       -1.05581643943580        4.43370963465834
H           33.06535938176793        0.75904750093795        5.43295564781920
H           33.11057865843594        0.18337074701965        7.84958793590664
H           32.57121013941159       -3.18361990312428       10.21266116551241
H           35.08296692558623       -3.50817430730593        6.93796615435657
H           35.03110770347774       -2.94068436495373        4.51947317094032
H           36.68536353135580       -0.82370155081125        4.44398236752328
H           38.55350832011218       -0.42821090645503        2.55723853089711
H           38.50250456433466        0.39705882743048       -2.63960670952723
H           36.60048544048422        0.83645364819210       -4.48300790154940
H           32.89560046642627       -0.64789983242507       -5.36108148791620
H           32.87496793199600       -0.08986162347401       -7.78221344682324
H           35.61587137162125        1.77412273240371      -10.48050798167655
H           34.98876682300530        3.54535205197315       -6.96623721066984
H           35.00223203978647        2.99625669243883       -4.54328604297837
H           31.30126737218293        1.24407896849483       -4.33810562794119
H           29.43978260112228        0.84565297557824       -2.44251714052947
Cu          60.94403697281880        0.03839719460722       -0.01119453026728
C           64.34881305861506        0.12651815249893       -0.02941169295767
C           63.71415926420745        0.27465112287304       -1.25320274896265
C           64.38986942756530        0.42419162441340       -2.51059401726407
C           63.43175553238165        0.53574921986373       -3.46316145429581
C           62.16076139506715        0.46636306711807       -2.79379493263109
N           62.36321523673131        0.30106290313101       -1.45404302063026
C           60.91590686366385        0.53239286918333       -3.42293627078588
C           60.89971344637407        0.74486160390978       -4.89146514215047
C           61.41900791228826        1.92033177037882       -5.43923203547220
C           61.39439442965744        2.12893512198673       -6.80844464327124
C           60.85201597864619        1.14658310673069       -7.62094922152871
S           60.80462007899038        1.40996802949177       -9.35360303879363
O           60.84432830856749        2.81051358085148       -9.65544231695847
O           62.24708722750503        0.76516280709132       -9.73042315445182
O           59.78615026383589        0.60735885790009       -9.96506399048957
C           60.33101234326321       -0.03014115946176       -7.10779610387445
C           60.35586344552533       -0.22550848661058       -5.73677439229666
C           59.68210135313072        0.41787677189081       -2.77901302216120
C           58.40449884672744        0.55017120886995       -3.42118180369210
C           57.45892767923041        0.39394720568157       -2.46101855988518
N           59.49521968983147        0.19517871110114       -1.44136562665120
C           58.15057834437256        0.17298910411474       -1.22621317901052
C           57.51653496992508       -0.03111025974866        0.00965751445024
C           58.17338948183918       -0.21528187769329        1.23667255698222
C           57.50622165546589       -0.46912330131639        2.47851400532689
C           58.46911616660774       -0.59431879795570        3.42610403516229
C           59.73243114120670       -0.40679290475240        2.76963429261336
N           59.52038406324522       -0.18565049964501        1.43546604478670
C           60.97775008379859       -0.46844063540247        3.39867643223073
C           60.99065761697238       -0.69002993110389        4.86577149490335
C           61.58380871911348       -1.83669843843346        5.39952974184483
C           61.59492364127432       -2.05117880793290        6.76801561492070
C           61.00992054390517       -1.10530977451911        7.59402319868955
S           61.03082693339781       -1.36457359591362        9.32808567406917
O           60.91626161803791       -0.12310397805590       10.03663668995507
O           59.61252715078140       -2.14311192866540        9.47453292931395
O           62.08637491844709       -2.26420568111592        9.68584320230596
C           60.42016662969018        0.04494914362138        7.09525692685022
C           60.41117767423981        0.24698323720739        5.72501393657941
C           62.21071861606867       -0.33691113726225        2.75616430102539
C           63.49074910080051       -0.34047355968371        3.41199603440695
C           64.43134798774730       -0.17355836938330        2.45022274290499
C           63.73545657198607       -0.05687373281960        1.20039183175481
N           62.38996858336566       -0.15629475910994        1.41508099451511
H           65.43342574769090        0.15601337536087       -0.03475404049931
H           65.46119189328503        0.43154080243986       -2.63468961952646
H           63.56565208859558        0.64392764851326       -4.52745517577928
H           61.82695171112755        2.68160124318240       -4.78454919532402
H           61.78181380041028        3.04196761819556       -7.24274923690350
H           62.37734433915659        0.77420517665050      -10.68646297431214
H           59.91001222180100       -0.77449140393832       -7.77192400729363
H           59.96087802880626       -1.14233539305903       -5.31491851851939
H           58.25430684410382        0.75201530117603       -4.46931118234160
H           56.38672593610482        0.43112446656467       -2.56795413316219
H           56.43761815959321       -0.54912781848881        2.59768880872712
H           58.33985823057160       -0.80805747091153        4.47469681452253
H           62.02612084769923       -2.56966367703948        4.73494271768202
H           62.05184464912153       -2.93636469796304        7.19226740279563
H           59.33244724858383       -2.15008551280870       10.39795906368902
H           59.98324596373326        0.76975695850144        7.77066264712584
H           59.96555266951683        1.14576944305489        5.31496351729117
H           63.64185807828477       -0.44440511195762        4.47436548950624
H           65.50270229989557       -0.12309206533354        2.56339090641424
C           40.05511197062980       -0.02294712709731       -0.05029451429244
C           38.83463260298096       -0.01090159154288       -0.04197213944696
C           41.40769957176683       -0.03064976767302       -0.05427657564957
C           42.62834982804680       -0.03577536598277       -0.05570615103652
C           53.53362609076645       -0.06817911037199        0.01867892833855
C           52.31297904859255       -0.07115201202710        0.01467786491812
C           54.88623084091234       -0.05943969373284        0.01820143171237
C           56.10670339235141       -0.04999414654378        0.01801175831434
Cu          47.47100915394994       -0.05307597120900       -0.02272561491605
C           44.03786273667966       -0.03977865535668       -0.04940829450375
C           44.68267667405840        1.02370935123919        0.60339374746011
C           44.00302967931904        2.08522589739497        1.28451419215964
C           44.95771891440567        2.91966368134841        1.76763841319764
C           46.22806924682496        2.37569505687167        1.37716383207504
N           46.02804553243559        1.21718211876444        0.67715083776142
C           47.46908402540544        2.93595528114126        1.68798938791497
C           47.46756036016867        4.22937676243631        2.41538775740539
C           48.03351247812376        4.32452597417004        3.68902390193933
C           48.03600953720071        5.53117668023038        4.36944417067204
C           47.46976505767256        6.63917693386705        3.76043652371154
S           47.48456114732497        8.17404568685045        4.60819804090559
O           47.41353072974683        9.27180217596772        3.68818397015704
O           46.04110238862349        8.05959162069092        5.34444397982415
O           48.50988951882574        8.18237557463863        5.60831804989002
C           46.90497753663292        6.57744520085478        2.49673520274196
C           46.90406311504713        5.36479315259251        1.82757349195303
C           48.71085743302663        2.38281454379757        1.36798054690379
C           49.98095329550409        2.99517871969601        1.64045031422783
C           50.93634110486248        2.15340778332620        1.17193018330419
N           48.91194434880078        1.19012156484082        0.72787969155985
C           50.25750427632435        1.02784886522803        0.60181944468154
C           50.90342915782411       -0.06825872467428        0.00660900139557
C           50.25832269687719       -1.15909053081937       -0.59881855788854
C           50.93682600336577       -2.28938960971272       -1.15981857204246
C           49.98220051721849       -3.12091037125704       -1.64790565770758
C           48.71311234970267       -2.49774894691189       -1.39585999573450
N           48.91368820033542       -1.30920534975483       -0.74802110464678
C           47.47229165517893       -3.03784701502511       -1.74081285017669
C           47.47245510270848       -4.32615866154305       -2.47739547280834
C           48.05710591386411       -4.41477977339158       -3.74303981020190
C           48.06004435561094       -5.61526169639100       -4.43421032709922
C           47.47548949049166       -6.72378221872353       -3.84371348940582
S           47.48912878394049       -8.25053110089303       -4.70580163226175
O           47.38563733463452       -9.35606776658820       -3.79831591556622
O           46.06270817108536       -8.10972922082210       -5.47069461254851
O           48.53426426936304       -8.26300207720414       -5.68523864215799
C           46.89264233690313       -6.66872500824411       -2.58793819876592
C           46.89139421556576       -5.46203564911164       -1.90800423925811
C           46.23092999686628       -2.46813448465503       -1.44920905137579
C           44.96258551896737       -3.00084440292615       -1.86114121742961
C           44.00697434444749       -2.16081333869202       -1.38953739509983
C           44.68426342255340       -1.10653177867732       -0.69507272098188
N           46.02908411786557       -1.31003528948766       -0.74898813770444
H           42.93242245551287        2.16888690899187        1.38097334905425
H           44.81835403607806        3.81670245170369        2.34892790959002
H           48.46242283231923        3.44337315638697        4.15177255775916
H           48.47297669676897        5.61638941298373        5.35642756003506
H           45.76188240161057        8.92640082416574        5.66365549499192
H           46.48179797903016        7.46600370499434        2.04527071311406
H           46.47855416275302        5.29741055333405        0.83310014756345
H           50.12001698755956        3.95244399009407        2.11606443060837
H           52.00691276605377        2.27879635908391        1.19687239783991
H           52.00651866722622       -2.42444661860615       -1.16619448830891
H           50.12079616114224       -4.07783689403523       -2.12437657593885
H           48.50022808990784       -3.53306950335509       -4.19108560342632
H           48.51101283046825       -5.69535486496272       -5.41529814323054
H           45.78625638217769       -8.96669212548520       -5.81768973688426
H           46.45564454351370       -7.55780497401183       -2.15091626073367
H           46.45149486246326       -5.39994677171010       -0.91947511054190
H           44.82521606833759       -3.89505179577883       -2.44726079465605
H           42.93732573334764       -2.23573686909768       -1.50267135672504
