212
 energy: -341.222952734526 gnorm: 0.000543265673 xtb: 6.5.1 (b24c23e)
C           30.99974032348450        0.53841665266942        0.03139560128177
C           31.60261962991387        0.60418298532972       -1.21840580579864
C           30.94334790706346        0.73437533178842       -2.47240698192456
C           31.89517722347940        0.71012389782997       -3.45327036696944
C           33.16797290865518        0.57874349114268       -2.82921311327054
N           32.94029859612051        0.51673218059899       -1.48329103223272
C           34.42154726284966        0.49495837877002       -3.44796477832848
C           34.44587458012067        0.59432686531560       -4.92581716400562
C           34.96667400116463       -0.44440681463741       -5.69986391847889
C           34.98457226293133       -0.36850139460505       -7.08199295603568
C           34.47897092767658        0.76257305585821       -7.72941662819193
N           34.52182565432711        0.91591645047838       -9.10729104311790
C           34.57299224789834       -0.26230034260411       -9.96252290576442
C           33.96919871619664        1.81355924676474       -6.95708370464281
C           33.94778603564975        1.72575384963578       -5.57793513205001
C           35.63376604423425        0.32919354731311       -2.77259515395582
C           36.93059145391882        0.34478052653973       -3.42451757232773
C           37.85129658859024        0.19618064402200       -2.44927294528231
N           35.78941840762866        0.17900009895319       -1.42795165399001
C           37.11614855107403        0.09179030403128       -1.20426504466477
C           37.75464113685285       -0.06309358214115        0.04356706121344
C           37.12204788083844       -0.16291605034471        1.29807430498790
C           37.77087010273400       -0.30852108992028        2.55207911939543
C           36.80800408785669       -0.35104443982411        3.52281958600256
C           35.54013145779676       -0.23723921649926        2.88930248067557
N           35.78242809784720       -0.12455440255133        1.54515296306821
C           34.28412846190042       -0.19616054086536        3.50640913454786
C           34.25588896563890       -0.37578824502597        4.97570804364720
C           33.71700619006962        0.60745291354105        5.80782789019706
C           33.69315286707808        0.44820700310263        7.18281749469525
C           34.21149807841285       -0.71250474623841        7.76450716358911
N           34.16270755397099       -0.94937971739860        9.12995703380194
C           34.08493649254047        0.17319347632430       10.05501701843196
C           34.74208193922119       -1.70718185306011        6.93367308722966
C           34.76906748738801       -1.53629511347677        5.56270576592719
C           33.07358857960239        0.00612024380092        2.83324473523032
C           31.76838970136830       -0.00373899156488        3.47475845540682
C           30.86142433811580        0.21586434867076        2.50114486620638
C           31.60978342401414        0.34287983354541        1.26355800172385
N           32.93789209426292        0.20908174769861        1.50114248674268
H           29.91772039081776        0.62570303764428        0.03273658499150
H           29.87556804098855        0.82216648293894       -2.59581157171518
H           31.73288405047156        0.76499616091839       -4.51754210241726
H           33.66773330502662        0.40201478415891       -0.78542378234067
H           35.34518820636132       -1.33499623032746       -5.20998932190801
H           35.39377267460309       -1.19385392833575       -7.65157069834949
H           33.86389635815070        1.60843110042205       -9.44431752712896
H           33.77312499420133       -0.97147494431867       -9.72019794899797
H           34.46204434384003        0.06668087226205      -10.99577056964826
H           35.53793828294557       -0.75963025012295       -9.85654107992115
H           33.59049006925976        2.70278999726711       -7.45005152974507
H           33.56108536199422        2.55345803289851       -4.99329241633317
H           37.09502608711073        0.47676409776695       -4.48165549644405
H           38.92547820895001        0.16370805715721       -2.53776675915525
H           38.83911435025982       -0.36610650993699        2.68584487131112
H           36.96168387072950       -0.43608375924397        4.58623164902996
H           35.05921486754013       -0.00969877039006        0.84266259941901
H           33.33065440394815        1.52193632135204        5.37098224944885
H           33.26975133528851        1.23230527428475        7.79845642653169
H           34.82820470797977       -1.65156424891017        9.42991422230881
H           33.11119810040564        0.65793168604687        9.97365167524625
H           34.87227938222934        0.91066549461743        9.86113699676856
H           34.19712083510350       -0.21605799550272       11.06695045923732
H           35.13256794517338       -2.61829273989744        7.37475493718526
H           35.17247239256902       -2.32091780802860        4.93177965793613
H           31.59168596341472       -0.17522005714151        4.52440952506206
H           29.78706588659594        0.27650220178551        2.57986444826316
C           69.69395433619528        0.54158048826056       -0.06444507704952
C           69.09175013996808        0.67075919385050        1.18074413798389
C           69.75206641072765        0.86814191100175        2.42545559065510
C           68.80172555385268        0.89010382738599        3.40781347418332
C           67.52864803674564        0.72172359961043        2.79330292024131
N           67.75478438552886        0.59215153491720        1.45188141870967
C           66.27567833349215        0.66421700309778        3.41636301011747
C           66.24989343829655        0.83065105031175        4.88799106086235
C           65.72604439903110       -0.17277026199193        5.70562645708998
C           65.70497505299093       -0.03696015848822        7.08299538587179
C           66.21074117948297        1.12052191393710        7.68187522297303
N           66.16474366321755        1.33364961270277        9.05140984499115
C           66.10242348634682        0.19493916373086        9.95758931134227
C           66.72385165265945        2.13614748045755        6.86557146895683
C           66.74806892681583        1.98866909378277        5.49150905711527
C           65.06417292950627        0.46117148759733        2.74968638830681
C           63.76693551649561        0.50742589654779        3.39928547090225
C           62.84738935815266        0.30188512810851        2.43334705308661
N           64.90979661542319        0.23881795917987        1.41494209747093
C           63.58365432557703        0.13255753639042        1.19619051960988
C           62.94637204365841       -0.09661677251558       -0.04072074150373
C           63.57838641893982       -0.25570275749553       -1.28943487512926
C           62.92891521183478       -0.46936048962510       -2.53332914731975
C           63.89080939308834       -0.55548351816739       -3.50213181868285
C           65.15871061144456       -0.40207415509775       -2.87713447871314
N           64.91730445561704       -0.22064518164825       -1.54037922651220
C           66.41419677497316       -0.38922758408690       -3.49663554041914
C           66.44248018765778       -0.65209919802216       -4.95327101133378
C           66.98025219497133        0.28127260061392       -5.84161616858075
C           67.00428313160531        0.04167183408821       -7.20495945493305
C           66.48708733781277       -1.15160987639332       -7.71769602853073
N           66.53644503267327       -1.46841700650429       -9.06671538098490
C           66.61489861651442       -0.40276740518804      -10.05667933197825
C           65.95708266936698       -2.09621924283713       -6.83003593434282
C           65.93013924623530       -1.84535310783219       -5.47149829283477
C           67.62378807913556       -0.14636518901649       -2.83525227680731
C           68.92950357353796       -0.18598646720774       -3.47441512759420
C           69.83484835541311        0.08854764497768       -2.51333191685274
C           69.08505741087342        0.27891266908789       -1.28470522716570
N           67.75771082653436        0.12811911712027       -1.51575299865446
H           70.77569174339934        0.63228668632505       -0.07077670447136
H           70.81963033773353        0.96677153660516        2.54253980874053
H           68.96538853068380        1.00022060397011        4.46758416987676
H           67.02666913551850        0.43777758705843        0.76236242647748
H           65.34745252281881       -1.08334627994837        5.25406729525865
H           65.29323827660740       -0.83628847630866        7.68680547978878
H           66.82363240241503        2.03787609857239        9.36088501213595
H           66.89998695560448       -0.52830978492946        9.75207141233908
H           66.20879472412713        0.56883360852921       10.97594927458337
H           65.13556297573577       -0.30182850501313        9.86775814617562
H           67.10254758864079        3.04551360167339        7.32033352009926
H           67.13652494348656        2.79021656479205        4.87259010008897
H           63.60138308717268        0.69721793628967        4.44739724151405
H           61.77329153080810        0.27064651311950        2.52300186722070
H           61.86087611324948       -0.53993135543295       -2.66236100806354
H           63.73634264007764       -0.69526985426280       -4.55961379163521
H           65.64087122809325       -0.06645211637973       -0.84582580888293
H           67.36546164441326        1.22031154619008       -5.45930561051172
H           67.42688685765427        0.78864961716962       -7.86564537280902
H           65.87181616094513       -2.18767828922690       -9.32515116418691
H           67.59005166275581        0.08333041228368      -10.00635830833337
H           65.82996459360464        0.34696484962443       -9.90506394755332
H           66.49924048176685       -0.85090371883677      -11.04354083734112
H           65.56716771590037       -3.03182667228584       -7.21694965271291
H           65.52748245853149       -2.59205994541269       -4.79570758239583
H           69.10771631737337       -0.41276408228404       -4.51327229858697
H           70.90904896532892        0.14844673252347       -2.59452699556485
C           42.95568203446881       -0.14733165911798        0.06422170427245
C           41.72673944987891       -0.14417565868281        0.06393155584045
C           40.38316895652349       -0.12923614169291        0.06118089242568
C           39.15889146785730       -0.10921223901842        0.05194080806686
C           44.29915028268956       -0.14486854958751        0.05898217289989
C           45.52371361847252       -0.13961522871428        0.04808129370843
C           58.97663112495128       -0.25243353703349       -0.04855162763610
C           57.74800489020848       -0.27983659069545       -0.04546826185245
C           56.40472669127328       -0.29631450661173       -0.03902609975417
C           55.18023400818924       -0.29931405886982       -0.02749779302856
C           60.31956401344738       -0.21143451958794       -0.04947435290105
C           61.54300417520053       -0.16304546332182       -0.04421584815914
C           46.92768025868873       -0.13217626746827        0.03670350045526
C           47.56294644502798       -0.07919130832033        1.29317173111243
C           46.92005092332622       -0.05316836599892        2.55707712476844
C           47.89033438107710       -0.02066293982707        3.52190246974071
C           49.15439700476113       -0.01835350424589        2.87313320389244
N           48.90535647969558       -0.05870456591122        1.52683115589461
C           50.41737758235614       -0.01519005102105        3.48009688584776
C           50.43936294630475        0.07432417912679        4.95899357486402
C           51.03064579975261       -0.93120073843308        5.72912314907713
C           51.04532739234496       -0.84857253491869        7.10841020194219
C           50.47406195776468        0.25044901637342        7.76194006167643
N           50.56491844962616        0.31856186868330        9.14376187379077
C           49.61467147763172        1.13181621137755        9.89027657394646
C           49.89433031839377        1.26597064681746        6.99591482732389
C           49.87210730413190        1.16837370249096        5.61511333968952
C           51.63673576017370       -0.08723296185795        2.80319470976672
C           52.93023017815372       -0.01881885822405        3.45832830559047
C           53.85871302635785       -0.10556476855374        2.48302329266334
N           51.80123234237463       -0.19724145454885        1.45560982893942
C           53.13124021153182       -0.21399654692038        1.23460269225999
C           53.77626622292205       -0.29442870337145       -0.01648098429430
C           53.14160927195980       -0.34011493738882       -1.27353459199601
C           53.78602800222781       -0.35906493321148       -2.53678975538568
C           52.81709970709470       -0.35717551605517       -3.50338882180936
C           51.55206843879484       -0.34915149006553       -2.85654729836918
N           51.79944020287073       -0.33709242670388       -1.50926677053782
C           50.28954431623483       -0.32179158121267       -3.46359832984943
C           50.26553273309900       -0.35231614123992       -4.94491757187509
C           49.68680824615612        0.69291413543296       -5.66735171894357
C           49.66492358953857        0.68082314656267       -7.05135818193106
C           50.21099639593034       -0.39819838313383       -7.75255730547865
N           50.25543179186283       -0.44135274695351       -9.13799749303116
C           49.28344165017484        0.31794547564685       -9.91326378060715
C           50.79595828254627       -1.44729089009015       -7.03268756747071
C           50.82549095549663       -1.42052077462738       -5.65119373589948
C           49.07008052562572       -0.26556156323928       -2.78527321527678
C           47.77749191063740       -0.32293417575189       -3.44323519362866
C           46.84767752120633       -0.27082919325080       -2.46660353499071
C           47.57357379675842       -0.18787708060580       -1.21533672785317
N           48.90379812617660       -0.19111009038855       -1.43553096403627
H           45.85178346361497       -0.06577520661821        2.70164891456271
H           47.74393776386206       -0.01447360221361        4.58968366940380
H           49.62335452956449       -0.08193888404610        0.81037730034272
H           51.46156154809368       -1.79660361133004        5.23777305870330
H           51.50067410083208       -1.63984010799077        7.69459324981675
H           50.72026762095553       -0.58599190460457        9.57201113251834
H           48.57978839776801        0.89373320912215        9.61911438085436
H           49.76349574368174        0.93454164043229       10.95188524556724
H           49.80006028019508        2.19027410589065        9.70284927793457
H           49.46260285097343        2.13802486078464        7.47154025757213
H           49.42878235112388        1.96832907347384        5.03186662886521
H           53.08697676887451        0.09923300376015        4.51819481608558
H           54.93308311803076       -0.08824355724265        2.57300581647720
H           54.85456673846760       -0.36226002300138       -2.67968247049302
H           52.96588210595375       -0.34725667309744       -4.57072579544460
H           51.08065658768592       -0.30943972339326       -0.79378691842465
H           49.26744483072805        1.53958009991810       -5.13479757692134
H           49.22407999746289        1.51659028512196       -7.58067427466981
H           50.38556538711490       -1.37983169013325       -9.49617911763380
H           49.48199997600202        1.38628022069918       -9.81842506573454
H           49.39243393285766        0.03471346291485      -10.96015885183860
H           48.25783348124203        0.11155603288074       -9.58682634589178
H           51.22582876366987       -2.28714827763631       -7.56837396143298
H           51.26472326497795       -2.24979475814465       -5.10737819407264
H           47.62283684206168       -0.41288665739584       -4.50626664778593
H           45.77349633107792       -0.29332713560522       -2.55801632994769
