122
 energy: -221.685380637420 gnorm: 0.000601446270 xtb: 6.5.1 (b24c23e)
Cu          17.10964993144441        0.06433707624351       -0.02799814241157
C           13.70115379738053        0.10621177930517       -0.09577925244098
C           14.33828690373314        1.33023955316457        0.03982609473760
C           13.66501948897515        2.59013615053810        0.17777843447286
C           14.62453748131689        3.53612436576924        0.32779371714828
C           15.89415150388306        2.86241640364996        0.27476104460805
N           15.68885835099042        1.52469022537746        0.10023730447897
C           17.13797225565577        3.47642914810666        0.43899098613101
C           17.14784935961101        4.94608349429747        0.64088890806733
C           17.61394161998733        5.49605014506611        1.83851753267278
C           17.61319790988278        6.86520323492897        2.02426146038975
C           17.15157111112532        7.71628408708589        1.01477389691015
C           17.16050243474929        9.17369058484215        1.23708814203435
O           17.54102019621222        9.69337086467290        2.25457194144947
C           16.68874121079646        7.16795321381726       -0.18373556904587
C           16.68451717649682        5.79656370066572       -0.36663322629045
C           18.36961639459991        2.81778477661568        0.43023402432469
C           19.64342913761926        3.46009879022171        0.58690346381888
C           20.59011886095697        2.49454180808342        0.47790954578474
N           18.56297575043260        1.47788777605174        0.22181160895591
C           19.90759999405138        1.25908512482408        0.23832120356806
C           20.54816708227477        0.02665204859873        0.01689410200975
C           19.88399058674392       -1.19184820380584       -0.21192586237878
C           20.54181516405619       -2.43271696260464       -0.48894455591201
C           19.57680581976436       -3.37854060659090       -0.61089922274644
C           18.31747840529616       -2.72008385475630       -0.41144374917119
N           18.53561562001942       -1.38650716438413       -0.18987884241520
C           17.07259279292909       -3.35236581534903       -0.46223333697867
C           17.06207506567037       -4.82535590476746       -0.62545888263123
C           16.44617220678620       -5.41347214060218       -1.73386023495330
C           16.42954602699523       -6.78923687318716       -1.87907412092011
C           17.02501034736118       -7.60616770399288       -0.91488403401080
C           17.01254529955992       -9.07475556694653       -1.04168450170614
O           17.50861151802611       -9.82050003888958       -0.23655436925779
C           17.64318867309129       -7.01827750445531        0.19381479730114
C           17.66414862425552       -5.64433275570970        0.33510896998326
C           15.83801404652925       -2.70528392669493       -0.36855024635157
C           14.55562559016949       -3.35622445293453       -0.37981155830805
C           13.61478802797387       -2.38424384293805       -0.28806233592212
C           14.31303893933025       -1.13327589784353       -0.20507627208692
N           15.65965789716070       -1.35786577766215       -0.24648204907773
H           12.61616568620622        0.11804526555769       -0.10278247086679
H           12.59417011439159        2.71859311509958        0.16762237825799
H           14.49100343142870        4.59564608440214        0.47572282560045
H           17.96043550133306        4.83847838666485        2.62775078848912
H           17.96744635870349        7.29979259223099        2.95284509375401
H           16.77901644135098        9.76781524018393        0.37913290318088
H           16.33165964444568        7.82113435193929       -0.97337294636333
H           16.33418550269072        5.37398986115791       -1.30167452919614
H           19.79261413425471        4.51503226373167        0.75000328536503
H           21.65894929440494        2.60381708133920        0.55405000934892
H           21.60694515628516       -2.55665818313888       -0.59005893513924
H           19.70235926142925       -4.42525607720708       -0.83552965698522
H           15.99405606093101       -4.78196862952923       -2.49041396569776
H           15.95292939734073       -7.23690466289785       -2.74520021686561
H           16.50060875824607       -9.44905529020452       -1.95399269948222
H           18.10101691323838       -7.66029802288684        0.93872002937214
H           18.13233351939033       -5.19209316767265        1.20217800006385
H           14.40137121376526       -4.42165101338306       -0.43743152608124
H           12.54173403002784       -2.49134008748564       -0.26800520460857
Cu          28.02812081667478       -0.05969668381412       -0.03685204857669
C           31.43660817015796       -0.09152060272149       -0.10999653190641
C           30.79946967944712       -1.32238069820616       -0.15005470548183
C           31.47273013150761       -2.58908604146675       -0.19291192469201
C           30.51320771555765       -3.54679004677285       -0.17910056767938
C           29.24359723496395       -2.87238737352506       -0.13565236902884
N           29.44889904498575       -1.52344466709494       -0.11792343949653
C           27.99977188532268       -3.50351877937706       -0.06052532292107
C           27.98988738087969       -4.98694595358046       -0.06998689675685
C           27.52376292386518       -5.70186295813735        1.03709906828731
C           27.52451602135503       -7.08351337553282        1.02597543434310
C           27.98615208447544       -7.78215562180016       -0.09441656828635
C           27.97718540099585       -9.25636431932824       -0.08193178242727
O           27.59687789139924       -9.91565290462181        0.85124032577178
C           28.44901103524872       -7.06873441223385       -1.20260973389384
C           28.45325427443384       -5.68527743677140       -1.18834133489378
C           26.76813198123473       -2.85033162718497        0.02459572374178
C           25.49431021611429       -3.50839742514140        0.08816861677600
C           24.54763042765709       -2.53715023371628        0.11776425981728
N           26.57478487315327       -1.49440812887719        0.00910923832625
C           25.23016214699672       -1.28017328568739        0.05657081585353
C           24.58960692450779       -0.02876389672821        0.01288440170257
C           25.25379105720984        1.20990099817852       -0.04002936231103
C           24.59597413690522        2.47757788025679       -0.13750832422868
C           25.56098988155936        3.43112090447444       -0.12349336978474
C           26.82031392512003        2.75096242316802       -0.01983085451066
N           26.60216459478978        1.39942793633854        0.00955337944827
C           28.06520660765165        3.38402440354589        0.01992918265066
C           28.07572448753336        4.86524740569361        0.06812558746365
C           28.69165628741049        5.60521683414343       -0.94521266708689
C           28.70821667086088        6.98764216121279       -0.89307515380317
C           28.11270262907478        7.65894290677404        0.17759536415752
C           28.12509863723191        9.13062530339917        0.26115550799354
O           27.62944426860082        9.75411211369857        1.16451488668034
C           27.49452780276729        6.91915721786745        1.19128304489691
C           27.47359049226025        5.53909223560395        1.13549557631337
C           29.29977997346814        2.73018690780016        0.02047840404006
C           30.58217541580735        3.37608144257992        0.10202962023753
C           31.52300258313870        2.40093496140900        0.05437067352579
C           30.82473761421437        1.15090544616066       -0.04164552283834
N           29.47812156899887        1.37911753380005       -0.05061178217814
H           32.52159652827033       -0.10225028013712       -0.11864979692026
H           32.54357844313756       -2.71479555220371       -0.22127128408761
H           30.64673771500530       -4.61658022053243       -0.18352825508662
H           27.17723437596254       -5.16338446578220        1.91192240490272
H           27.17023041180622       -7.64591041698576        1.88319478281444
H           28.35870501470419       -9.72225310636687       -1.01577589128040
H           28.80613089384237       -7.60281154871831       -2.07719946792003
H           28.80363956902362       -5.13385609995512       -2.05365447232161
H           25.34510912515719       -4.57580333073967        0.09936061645566
H           23.47879801341549       -2.65613528698922        0.17755275690782
H           23.53084486838208        2.61466930806497       -0.21994924975551
H           25.43544397812550        4.49915743720765       -0.19678394950166
H           29.14384985891950        5.08788477657340       -1.78394580423356
H           29.18487550173191        7.55408356765117       -1.68659755939110
H           28.63680179452315        9.63103234492168       -0.58866608296439
H           27.03663472197601        7.44855584820211        2.01998494672284
H           27.00536587758189        4.96799159302661        1.92929775468273
H           30.73644391128595        4.43885055058637        0.19675131091245
H           32.59605855538689        2.50407341751262        0.08945266542761
C           21.96029340802329        0.01112147597572        0.01656490113905
C           23.17748051383558       -0.01326502141043        0.01462884794274
