460
 energy: -850.779695151023 gnorm: 0.000745339120 xtb: 6.5.1 (b24c23e)
C          103.55749675347199       -0.05044104849087        0.10471761161889
C          104.16371469197688       -1.29015327135611       -0.05072830602013
C          103.50979585251407       -2.54966267388789       -0.15921261427983
C          104.46895414795512       -3.51012826023244       -0.31426813300093
C          105.74008732846642       -2.86707664186881       -0.31281606463457
N          105.50536535378339       -1.53260719356512       -0.14239693888576
C          107.00114614262810       -3.46318179019232       -0.42764859013591
C          108.22006852082389       -2.78298006734436       -0.36409116906215
C          109.51479020170707       -3.42022690707979       -0.52794277744570
C          110.43879345539412       -2.44548592800894       -0.40364612763508
N          108.37882022232758       -1.44578849827524       -0.16743464331080
C          109.70748413810652       -1.21312337528975       -0.17939052094505
C          110.34716006879191        0.03140870388587       -0.01750220954860
C          109.71582335298299        1.27833633535205        0.14384436630449
C          110.36440557722598        2.52940377475792        0.32223313652775
C          109.40042009398455        3.49091696293875        0.44520077994669
C          108.13153896560280        2.85627281746411        0.33781214106985
C          106.87080368631675        3.45575443194066        0.43019255288306
C          106.84290294460490        4.92655040950607        0.60778969296395
C          107.40043958320125        5.76842242712272       -0.35857033917214
C          107.37144052924094        7.14043346387164       -0.19002989159745
C          106.78998388709061        7.69722548071694        0.95072239055228
C          106.78782391362985        9.17322049293985        1.08850115390266
O          106.20771224265118        9.60628082475919        2.21811856835850
O          107.25591344625263        9.93264381715956        0.27872281423181
C          106.23389075946895        6.86131669300276        1.91969366455683
C          106.25905195702707        5.48869996534058        1.74623869273096
C          105.65145563563966        2.77201717491371        0.37148622642160
C          104.34795148411530        3.41680084776897        0.41922283868917
C          103.43148067062799        2.43210916870947        0.33234566476068
C          104.17349705647568        1.18866959955371        0.21865641592429
N          105.50700529220812        1.43273937821694        0.23821485896117
N          108.37425605818176        1.51983855090826        0.16234170661442
C          107.02342939513821       -4.93080187753962       -0.63569627292037
C          106.42307344523140       -5.49014430031847       -1.76681625992390
C          106.44058627676576       -6.85902146707854       -1.96914452131709
C          107.05586437695656       -7.69387463109106       -1.03583412153019
C          107.09813780738070       -9.16615333956783       -1.20439715659743
O          106.50129349703630       -9.59517542128463       -2.32699621661989
O          107.61169286722354       -9.92608214449189       -0.42322734986658
C          107.65404221006565       -7.13982659762636        0.09763083211947
C          107.64021226849719       -5.77133035067566        0.29485756661211
H          102.47258160005477       -0.06008440495667        0.13307834842475
H          102.44140715825131       -2.68937948418984       -0.11732257737127
H          104.31609959592902       -4.57271474971006       -0.41132741292759
H          106.23157671031481       -0.82628517250577       -0.08817646922096
H          109.67318083249550       -4.46821538113824       -0.72408432022191
H          111.51234399089222       -2.52407450767611       -0.46552530816349
H          111.43329338715743        2.66517341431678        0.35697540554955
H          109.55159605894588        4.54556205559506        0.60766041445527
H          107.83988610812150        5.33946608926991       -1.25202169162322
H          107.79670857050192        7.79937247041232       -0.93911500159416
H          106.24773243077004       10.57634931437392        2.23176457890093
H          105.78462577181229        7.28882628908129        2.80827117583377
H          105.83917587597863        4.83901820497334        2.50585008678417
H          104.18171480253538        4.47933793402985        0.49430494171693
H          102.35548596209473        2.50868385292409        0.33212892355269
H          107.64988765629856        0.81488650379817        0.07309528637730
H          105.95654272905095       -4.84088719180202       -2.49928911678772
H          105.97833240715111       -7.28395856725324       -2.85229149115051
H          106.57333274184970      -10.56284354816695       -2.36274439937170
H          108.12615324056533       -7.79834445796117        0.81847842543111
H          108.09361853811144       -5.34449329917839        1.18216639913312
C          191.12135937484737        0.09926558927374       -0.00003897671455
C          190.51468620241926        1.28767645085374        0.38498648600539
C          191.16837237265429        2.48349405046819        0.79556502669718
C          190.20780791108947        3.41380007161948        1.07559839501295
C          188.93589319099178        2.81991852996845        0.83293339109250
N          189.17187124342573        1.53625154898177        0.43070326159715
C          187.67323756202200        3.40435321660254        0.98285790214838
C          186.45623962845545        2.75411873386105        0.76049855996257
C          185.16156259179550        3.40626894956492        0.84770123798596
C          184.23877114017509        2.46174637926643        0.57236311652581
N          186.29919344687565        1.44692841444905        0.41758288439180
C          184.97067623555415        1.23707647301724        0.31131675314727
C          184.33189608413682        0.01568961035824        0.02129916932037
C          184.96482887697715       -1.20533004914091       -0.27485894066522
C          184.31949247802277       -2.44219703210066       -0.54144667280606
C          185.28442455727281       -3.37140733761439       -0.81482793252429
C          186.55012215889138       -2.72678156414749       -0.73240721710406
C          187.81106789797619       -3.29852905843541       -0.93494133147087
C          187.84118704830792       -4.72327750109156       -1.33986471557009
C          187.22269663418857       -5.13631521400023       -2.52337705596697
C          187.25660508221358       -6.46550524203531       -2.90226876975947
C          187.90464117170862       -7.40892673573277       -2.10262806493728
C          187.91175647384782       -8.82214463114021       -2.55016333954517
O          188.56202256746323       -9.64665605414275       -1.71514199402936
O          187.39064569730149       -9.21776701972812       -3.56189589301693
C          188.52103335702435       -7.00279564296948       -0.91858387439030
C          188.49025386740243       -5.67104954840334       -0.54393462027868
C          189.02897852819112       -2.62565212072120       -0.78668352121684
C          190.33019015100106       -3.21708998927995       -1.05926468760085
C          191.24586179123366       -2.26387057761308       -0.79468022954676
C          190.50512503718039       -1.08797849447291       -0.37243440730098
N          189.17292386625846       -1.33911938934470       -0.39105433884864
N          186.30556937966443       -1.42329501175335       -0.39109828088883
C          187.64252680061426        4.82275394615490        1.41176138708482
C          188.24271054104562        5.81378995560020        0.63073857473554
C          188.21711324417220        7.13804170294461        1.03209311609861
C          187.59357744197874        7.49225639243858        2.22886665173355
C          187.54372013397531        8.89500582625787        2.70583490267334
O          188.14436781098900        9.76480251716736        1.87953757890720
O          187.02133844772408        9.24594406418136        3.73314840121537
C          186.99364615812732        6.50521926216414        3.01333232072896
C          187.01545703766598        5.18380604470485        2.60755518887612
H          192.20662758257822        0.10838217453567       -0.00708590868495
H          192.23766680449069        2.60116549939543        0.86958165278641
H          190.36078201819021        4.42115026817757        1.42734672879712
H          188.44562899114902        0.86569367416393        0.20236370383452
H          185.00311656957237        4.44833174225860        1.07328194420926
H          183.16564256291335        2.55975230802810        0.53642363051308
H          183.25220080176038       -2.59265309818000       -0.51990399328152
H          185.13619976019766       -4.41399763475252       -1.04413885676765
H          186.73210924996471       -4.40359055665424       -3.15410385798557
H          186.78446091088267       -6.79103517198934       -3.82273621273385
H          188.52105892377540      -10.54643879657603       -2.07782322562683
H          189.02182157628874       -7.73209584284253       -0.29289302219938
H          188.95760984387221       -5.35833997976748        0.38296442641462
H          190.49499338002153       -4.22054015259280       -1.41730610029053
H          192.32013184898867       -2.31782637983624       -0.87606709016159
H          187.02821770934000       -0.72597044192077       -0.24558842244714
H          188.71515222834782        5.54167561116064       -0.30646196996791
H          188.67954625626433        7.90131162595627        0.41747583375242
H          188.06713816224780       10.65443830658908        2.26085328459352
H          186.51417101676080        6.79113368418310        3.94309724371438
H          186.56026483935935        4.41720095843863        3.22420043291773
C          112.97718330791685        0.06088424464942       -0.00725488009386
C          111.75569920826959        0.04477521021245       -0.01739440582337
C          114.32824451881032        0.07345489370431        0.00401887392992
C          115.54979639765421        0.08577047608420        0.02048628220684
C          126.45079536420040        0.12109873761335        0.10007848650367
C          125.22806973118767        0.13499860846593        0.09670475883416
C          127.79956940032626        0.11124265742550        0.09984445096589
C          129.02242766960080        0.09409390973994        0.10464595718348
C          139.92744722109882        0.05381970712582        0.05626433694898
C          138.70448635513344        0.05560172749317        0.05939131408108
C          141.27614813513631        0.05642729627203        0.05576270083217
C          142.49916708521221        0.05290948180636        0.05607549240458
C          153.40310489319111        0.05406414323430        0.06117618966321
C          152.18016555935580        0.05337167971820        0.05951831706798
C          154.75177793373786        0.05564277686868        0.05928062885328
C          155.97471572615419        0.05789103602276        0.06057144924347
C          166.87933481740447        0.03050401154417        0.06194634628328
C          165.65646744783456        0.03611066670109        0.06135913428241
C          168.22809966266485        0.02856343824966        0.06231522595042
C          169.45095323144349        0.02618961438292        0.06609205279137
C          180.35058243629956       -0.00673646497625        0.04189173937575
C          179.12888917559954       -0.00261355932781        0.05002555251913
C          181.70181122502566       -0.00548944344043        0.03384984823056
C          182.92332861607773        0.00189251926304        0.02736764828401
C          116.95725855558942        0.09999392846599        0.03852679266292
C          117.58328774585762        1.07257166015213       -0.76322978951915
C          116.93485247485880        2.01265795401286       -1.60555114779509
C          117.89940259244939        2.77013892375859       -2.21140920063188
C          119.16596488493538        2.31968263477356       -1.74826228463042
N          118.92425833209271        1.28858598947607       -0.88107301023964
C          120.42613361772216        2.80509949126251       -2.11978662020269
C          121.65293057198467        2.30640898279782       -1.67846985291461
C          122.93704060334279        2.87764067656154       -2.04437511936358
C          123.87689003908675        2.13208556011786       -1.42733771894541
N          121.83372296538613        1.24876323609292       -0.84020876669283
C          123.16552073721164        1.11409046045924       -0.67953473059380
C          123.82325355003726        0.13623037685266        0.09403272289438
C          123.19582593360262       -0.85223729489700        0.87705791326821
C          123.84455024385588       -1.85243811627088        1.64645976815989
C          122.87944766614150       -2.60175665030681        2.26171281394071
C          121.61222179242547       -2.07427360410441        1.89123212483764
C          120.35244486808281       -2.54520588754277        2.28057528905928
C          120.34174663675761       -3.68519522678684        3.22939268156051
C          119.77088479239661       -4.90658247907856        2.86213173379782
C          119.76713437608242       -5.96902982445153        3.74700603764502
C          120.32932419043611       -5.82899543945428        5.01727286070116
C          120.30054563488082       -6.99656047485919        5.93086793573988
O          120.86504712270444       -6.75809785027430        7.12425462667012
O          119.82305158135745       -8.06669094839092        5.65174088257799
C          120.89754768964573       -4.61060356217688        5.39005728983510
C          120.90526403202375       -3.55021950696162        4.50076141415533
C          119.12492240278145       -2.03477432427112        1.85355217735262
C          117.83906050506396       -2.52285880876947        2.32032163265320
C          116.89970417598802       -1.78858789633873        1.68964841666677
C          117.61265441250589       -0.84655903611386        0.84932936456254
N          118.94593270372849       -1.01209157888289        0.97396317679549
N          121.85458886944747       -1.02351149877804        1.04743637153635
C          120.43716490366705        3.94545860259242       -3.06820925833409
C          119.85050847656949        5.16454470134073       -2.71840364399475
C          119.85934102324045        6.22377584551772       -3.60719532722726
C          120.44965253444208        6.08244965992125       -4.86444129822649
C          120.42820314094028        7.24485781226841       -5.78472791233152
O          121.02168175324876        7.00687361610580       -6.96393637779712
O          119.93096682872807        8.31033829073981       -5.52250796079507
C          121.03581160558629        4.86702975972658       -5.21896597878079
C          121.03049294359336        3.80992208920791       -4.32587520606950
H          115.86686308006421        2.08793050752913       -1.73137988242050
H          117.74863667509311        3.56422634536906       -2.92422794138021
H          119.64490857091008        0.75629679884783       -0.40507041637170
H          123.07790749908017        3.74017269189653       -2.67528411864226
H          124.94904419391207        2.24381555846211       -1.45261826895485
H          124.91313753852256       -1.97908874429259        1.71091351452306
H          123.03018602926909       -3.45166558549314        2.90698988025048
H          119.34512294984999       -5.02090063915880        1.87182134689227
H          119.33096120049105       -6.92150363047560        3.46660917726034
H          120.80619503951316       -7.56633396070593        7.65921828685145
H          121.33127502438315       -4.49596874490163        6.37640681002945
H          121.33563959156399       -2.59968336638453        4.79545530263482
H          117.69632709181975       -3.31032441291824        3.04231026066092
H          115.82668931053099       -1.85121359263111        1.77444351537039
H          121.13393654070960       -0.46081873623387        0.60778388102124
H          119.40276708699795        5.28086170669532       -1.73793166989805
H          119.41055667061147        7.17426546817942       -3.34019490917025
H          120.96586753404995        7.81166329434104       -7.50438708500728
H          121.49253777295719        4.75197479108398       -6.19481533892652
H          121.47446139427252        2.86139289884586       -4.60606685019707
C          130.42704686162463        0.08540577048169        0.09622871049643
C          131.05341520342813        1.00986477211608       -0.76255772914994
C          130.40445757767841        1.91777132882137       -1.63823954487541
C          131.36944075222078        2.64123339275121       -2.28439667201925
C          132.63630423300998        2.20190925643589       -1.81250994704314
N          132.39455897251352        1.20823479871206       -0.90232886061743
C          133.89636883292613        2.67010025760793       -2.20638159738927
C          135.12417544016105        2.18506112023351       -1.75319290599767
C          136.40713043207757        2.74570660079040       -2.13873405287798
C          137.34886862152618        2.01753250262627       -1.50405758958035
N          135.30751688060758        1.15118009720938       -0.88612452877659
C          136.63982600805741        1.02041742668620       -0.72667794071651
C          137.29991441913043        0.05802042377131        0.06436790328435
C          136.67320451511605       -0.91480525630101        0.86767528922147
C          137.32123453786153       -1.91226007225496        1.64069322929659
C          136.35611316527402       -2.64367372311466        2.27764033457901
C          135.09005892281846       -2.10587096560224        1.91885320251676
C          133.83032466543872       -2.54970606887698        2.34041440275849
C          133.81912743076711       -3.67705545054388        3.30413970418842
C          133.21301502946270       -4.88953303455964        2.96447388101401
C          133.20732958648310       -5.94210978256144        3.86093898583115
C          133.80319378526977       -5.80101610782712        5.11565676113516
C          133.77021746892967       -6.95771555629990        6.04280548965555
O          134.37491908371078       -6.72185746769237        7.21678737586984
O          133.25661803492847       -8.01754166137747        5.78948753020572
C          134.40667718836212       -4.59152057066365        5.46102297943598
C          134.41575935520470       -3.54089904987311        4.56015522596772
C          132.60264294226059       -2.02409228169396        1.93364278561661
C          131.32068379959227       -2.47266085096325        2.44781202787790
C          130.37902928958860       -1.73635643005283        1.82237325035222
C          131.08716758751075       -0.83538940149708        0.93483543638971
N          132.41921590119941       -1.02161994710509        1.03078377676072
N          135.33248940926075       -1.06971597946855        1.05724111143144
C          133.90619527039240        3.77906012341365       -3.19111954889147
C          133.32021877009100        5.00882152868757       -2.87949787424190
C          133.32881393518690        6.03946068524561       -3.80121657577029
C          133.91859903053890        5.85841371737643       -5.05360654425456
C          133.89731393211747        6.99147162858450       -6.00979134300570
O          134.49469588943055        6.71814887987795       -7.17927515166114
O          133.39702591022285        8.06349144865699       -5.78224664090125
C          134.50416090783483        4.63223837470853       -5.37002319111120
C          134.49877973530340        3.60368889450788       -4.44419240700670
H          129.33601828282258        1.99661847803415       -1.75770210512932
H          131.21806403941724        3.40540169890992       -3.02905345548132
H          133.11494684239580        0.69144335205622       -0.40915882333098
H          136.54618573485047        3.59059668325386       -2.79345859194167
H          138.42091414522832        2.12845645474726       -1.53589872426349
H          138.38915495807842       -2.04995728737958        1.69247808842756
H          136.50656925375719       -3.48750799926671        2.93088937176562
H          132.76081868436205       -5.00475926567848        1.98604165836854
H          132.74367666304602       -6.88759924636832        3.60177848273062
H          134.31088193785953       -7.52268975595831        7.76218050688121
H          134.86636168151838       -4.47597605898367        6.43544048488238
H          134.87305955732981       -2.59680738373435        4.83425692642786
H          131.18227048760826       -3.23641167660367        3.19570333952933
H          129.30759625056257       -1.77460761087806        1.93726882005722
H          134.61255599282185       -0.50471826308924        0.61938198950407
H          132.87334578905558        5.15616011877709       -1.90281209236813
H          132.88045052446344        6.99801407361249       -3.56403840177745
H          134.43911195437900        7.50564480933243       -7.74463818062184
H          134.96055100153896        4.48643096871081       -6.34190574677831
H          134.94236270672209        2.64666686637611       -4.69452094569885
C          143.90376351912170        0.05443029562575        0.05621307957839
C          144.53100369043963        0.98182858290051       -0.79881895052379
C          143.88346009754034        1.88702832642326       -1.67839383226704
C          144.84901808668261        2.61870139963133       -2.31451978014785
C          146.11474196002118        2.18670799322276       -1.83299015794076
N          145.87191050083865        1.18924822671428       -0.92712695355020
C          147.37511490224884        2.66379124200000       -2.21489639274675
C          148.60201832104860        2.18249401352371       -1.75504152415830
C          149.88511008087909        2.75006667144186       -2.12986025758677
C          150.82590619314686        2.02066353717360       -1.49522938161851
N          148.78415065248470        1.14438222290566       -0.89276581842246
C          150.11606292525087        1.01671626332582       -0.72749727875006
C          150.77558508810807        0.05275671735650        0.06209686776669
C          150.14853000648517       -0.92134092120096        0.86370842842483
C          150.79609457052752       -1.91560961963162        1.64124100926747
C          149.83050449053496       -2.64589128494107        2.27893381550137
C          148.56465114359480       -2.11114018798188        1.91523984846043
C          147.30429965968344       -2.55554047250072        2.33445932841411
C          147.29057186172184       -3.67698991620846        3.30504725007876
C          146.68731788311118       -4.89229781453037        2.97036465394901
C          146.67466815431337       -5.93768261306309        3.87511787253277
C          147.26073343245417       -5.78650163151031        5.13326161991573
C          147.21758437200310       -6.93477871062917        6.07044560220553
O          147.81433289602606       -6.69026156895745        7.24666269499280
O          146.70217949048870       -7.99510762994026        5.82295595119622
C          147.86295684156195       -4.57477946089506        5.47296412148130
C          147.87911532076825       -3.53138402530716        4.56378584006384
C          146.07721820928299       -2.03558918917699        1.91892100302223
C          144.79397181217351       -2.48638528769179        2.42786309467369
C          143.85317346976211       -1.75841256029468        1.79157936306126
C          144.56307554617888       -0.85931699929822        0.90347650117303
N          145.89517354178699       -1.03902833781955        1.00905342961173
N          148.80758870090381       -1.07766760246729        1.05060818781046
C          147.38800962140328        3.77793175015447       -3.19381689996036
C          146.79550438007948        5.00403900262307       -2.88023652338702
C          146.81154001718699        6.04101876760120       -3.79477330967860
C          147.41531263595647        5.87009245644376       -5.04190436873895
C          147.40393965830020        7.01047680409521       -5.98957486296116
O          148.02151567548560        6.74908545716154       -7.15125614909965
O          146.89527109070968        8.07843685330470       -5.76170629451912
C          148.00592081164015        4.64703253062891       -5.36093871924007
C          147.99303347778044        3.61214318140495       -4.44227814022393
H          142.81552334129526        1.95881910110545       -1.80662145406744
H          144.69910093424795        3.38384045921220       -3.05850856509758
H          146.59178474293705        0.67650982439819       -0.42898374883775
H          150.02495150989489        3.59984253266546       -2.77805033487896
H          151.89772399084626        2.13535101503681       -1.52069272815785
H          151.86407528347314       -2.05174781302940        1.69576896652592
H          149.98038117754302       -3.48697585289473        2.93587654228323
H          146.24206441052229       -5.01513955838181        1.98968485585177
H          146.21234372515292       -6.88497385167471        3.62021061845786
H          147.74351002866194       -7.48584171785276        7.79886295614196
H          148.31550933135392       -4.45161724922502        6.44978651550767
H          148.33490058450596       -2.58534400442675        4.83365023235811
H          144.65392267392394       -3.24589797417141        3.17973604335630
H          142.78125218909520       -1.80083900692386        1.90007628165156
H          148.08765349458508       -0.51530173007292        0.60935149248377
H          146.33837684276281        5.14387726162997       -1.90720365286892
H          146.35904162735429        6.99713660025878       -3.55561434741427
H          147.97179896713257        7.54078632931330       -7.71126449599498
H          148.47259864457891        4.50877584152421       -6.32903257617980
H          148.44122169667955        2.65779684256983       -4.69458702385240
C          157.37929906623174        0.05997146517558        0.06281845539055
C          158.00845299630842        0.98799003943640       -0.79005710856360
C          157.36300587457970        1.89709644521180       -1.66715036232724
C          158.33022821974868        2.62899164378047       -2.30043222150442
C          159.59504270304083        2.19297274030607       -1.81992176211324
N          159.34985120712295        1.19312606435200       -0.91731902479664
C          160.85631685349767        2.66879983350159       -2.20040474279813
C          162.08259082119267        2.18263986512769       -1.74359285778920
C          163.36689041266251        2.74799034992261       -2.11774756746075
C          164.30638473499212        2.01347556516169       -1.48704507436677
N          162.26276393549728        1.14106106456251       -0.88528029813729
C          163.59461445288002        1.00886348222690       -0.72207818118335
C          164.25184321283382        0.04084104452217        0.06424096817248
C          163.62247813333434       -0.93169138436212        0.86577741984232
C          164.26773054036306       -1.92754978614767        1.64313742431617
C          163.30053387452796       -2.65333040837192        2.28348425743293
C          162.03609613491730       -2.11407120289713        1.92152974112544
C          160.77502813525388       -2.55307516173895        2.34440696297294
C          160.76030940245619       -3.66942712092619        3.32071109610264
C          160.15218089193419       -4.88481367562047        2.99539536366392
C          160.13898515447221       -5.92444411622273        3.90677412171125
C          160.72938551239673       -5.76728202475761        5.16216508155637
C          160.68525070038413       -6.90923258018238        6.10694521676882
O          161.28326605276285       -6.65765975829417        7.28108181365461
O          160.16803028864499       -7.97044012973367        5.86705396334644
C          161.33680781402515       -4.55552946996837        5.49236878668396
C          161.35345758093425       -3.51797580505307        4.57663147539892
C          159.54891414713930       -2.03117443818240        1.92881589730696
C          158.26490946614865       -2.47784130885894        2.43945699390252
C          157.32542030193505       -1.75002011869492        1.80110548105409
C          158.03697077364487       -0.85433372682014        0.91084983795851
N          159.36864410072781       -1.03642957104114        1.01651485196218
N          162.28126175725308       -1.08290257950885        1.05495586067161
C          160.87082392690826        3.78809813732251       -3.17329261702612
C          160.27865639720866        5.01261760353673       -2.85273943731207
C          160.29603345209136        6.05522271395274       -3.76076582862371
C          160.90093086101211        5.89169285650307       -5.00835104869396
C          160.89123516984111        7.03807599211998       -5.94873632440300
O          161.50589073598007        6.78224903648374       -7.11322561121855
O          160.38618452915489        8.10611951136113       -5.71316289648695
C          161.49118438783097        4.67030016788147       -5.33438970871869
C          161.47682871093679        3.62967141659028       -4.42223654289452
H          156.29524756074773        1.97155633447988       -1.79533305380740
H          158.18202975009225        3.39673312343688       -3.04207454374960
H          160.06830549759786        0.67732531425258       -0.42030326197253
H          163.50855669219695        3.59974179166862       -2.76293418029796
H          165.37850494858358        2.12513649269918       -1.51340572953740
H          165.33528685958368       -2.06763578375353        1.69596293224375
H          163.44838168866815       -3.49431014189943        2.94100874097314
H          159.70364858930068       -5.01241726916971        2.01681927460168
H          159.67282397826656       -6.87181808334291        3.65927775881216
H          161.21151132101753       -7.44929946068273        7.83879356861456
H          161.79301201898309       -4.42774174751191        6.46688622182651
H          161.81331265156928       -2.57179108149690        4.83899026009796
H          158.12342173569499       -3.23489173994719        3.19353305326994
H          156.25345312910090       -1.79001224003070        1.91002512134602
H          161.56291843172286       -0.51775203297410        0.61468116482403
H          159.82076355482613        5.14662597953490       -1.87924172065102
H          159.84372133066833        7.01002982013985       -3.51609489816654
H          161.45749943352448        7.57770377152962       -7.66802001181560
H          161.95875432079470        4.53785187500018       -6.30286980873045
H          161.92458638215487        2.67663405992569       -4.68019999147844
C          170.85572053426094        0.02660449439095        0.06819317079620
C          171.48394744761995        0.97423161021765       -0.76316738903396
C          170.83734991626099        1.90020171398276       -1.62201103614870
C          171.80295677607043        2.65333889008284       -2.23193517654259
C          173.06819723896223        2.21430252289868       -1.75453889106140
N          172.82461331367131        1.19010538032719       -0.87906386066553
C          174.32809251116018        2.71110357288719       -2.11021906568255
C          175.55402246119891        2.21950192682104       -1.65628729061799
C          176.83752242662484        2.80885879221644       -1.99527323863469
C          177.77675993849545        2.05456945851998       -1.38825869416442
N          175.73320622064475        1.14599159577059       -0.84003723509546
C          177.06571405710318        1.01306945369178       -0.67328548252518
C          177.72127192187099        0.00429912383862        0.05828948021291
C          177.09390629211558       -1.00713505515199        0.80924158969315
C          177.73997927814307       -2.03865555373441        1.53868797794213
C          176.77463771963136       -2.78063396025394        2.16255379903565
C          175.51029902765936       -2.21766899040770        1.83715169294254
C          174.25108202923658       -2.65782283600912        2.26440842166482
C          174.24010242364287       -3.79552954477706        3.21554664070302
C          173.61447502074006       -4.99805062472049        2.87607424763537
C          173.60579804640153       -6.05576751757632        3.76655438582567
C          174.21786828154296       -5.92982825758048        5.01510534266107
C          174.17760916502610       -7.08972945751860        5.93770303625899
O          174.79077633542963       -6.86478732414133        7.10960191307040
O          173.65133173451258       -8.14313530486009        5.68342876130601
C          174.84299407166893       -4.73102066314532        5.35941976510110
C          174.85548222779079       -3.67567709513442        4.46433366596315
C          173.02507446298557       -2.11520129493781        1.87581905192088
C          171.74197986462838       -2.56462692419472        2.38646649165709
C          170.80253721544619       -1.81805692323096        1.77006614008094
C          171.51343970886651       -0.90690359943807        0.89489057010907
N          172.84461851010141       -1.09870535409836        0.98796819194662
N          175.75322870009245       -1.15777241978280        1.00603882257080
C          174.34326168649443        3.85603347021522       -3.05230138161662
C          173.73150913273255        5.06496012566419       -2.70994391943306
C          173.74728462609752        6.12958904669218       -3.59208113965954
C          174.36984357630544        6.00408885851292       -4.83541044410939
C          174.35527826233130        7.17180985604303       -5.74889534894257
O          174.97987797776403        6.94897271742045       -6.91499178822425
O          173.83812295490438        8.22923308380093       -5.49244353427701
C          174.98095954314729        4.79887186515938       -5.18270353371967
C          174.96857632124770        3.73640807564654       -4.29617754174160
H          169.76983792479496        1.97097600312423       -1.75428585567560
H          171.65378183714293        3.43776240055315       -2.95571529740818
H          173.54402305702732        0.66660306928539       -0.39161451742202
H          176.97829076204866        3.68825983828980       -2.60246372714870
H          178.84824801831886        2.17406812128650       -1.40081384815038
H          178.80701464035380       -2.18809559064001        1.57386959204094
H          176.92300749557333       -3.64723234353821        2.78585189965038
H          173.14891062798188       -5.10169975442919        1.90264268731418
H          173.12624501809614       -6.99339735832891        3.50777270461439
H          174.71914821245772       -7.66628696910770        7.65302818887937
H          175.31627751665468       -4.62735545857374        6.32864789824293
H          175.32959884425924       -2.73971415661780        4.73779250015444
H          171.60122174655848       -3.33684331794620        3.12515896474684
H          169.73109311902331       -1.85399302212862        1.88547700214572
H          175.03424317258614       -0.56965598444491        0.59811632346029
H          173.25937100625833        5.16947213546904       -1.73964579653706
H          173.27946497849118        7.07233549091573       -3.33038367456690
H          174.92602700587733        7.75619333872889       -7.45195866942876
H          175.46294836489827        4.69609774965691       -6.14771284666014
H          175.43238450267859        2.79583790182541       -4.57101743967790
