166
 energy: -306.987839938864 gnorm: 0.000806181913 xtb: 6.5.1 (b24c23e)
Co          16.56289006673528       -0.01772684411548       -0.01555030770541
C           13.15365816816214       -0.05659106221194       -0.05469988158366
C           13.82763777322232       -0.90375037384907       -0.90612598649218
C           13.16876832198536       -1.80137515431408       -1.80844578518015
C           14.14162915653279       -2.46425721196413       -2.47460576616182
C           15.39046525362818       -1.96883800353744       -1.97635136296256
N           15.19072177381237       -1.01230783332810       -1.01497336874934
C           16.61457794702210       -2.41536178040131       -2.42432079482220
C           17.81689881817784       -1.94407954888481       -1.94960725032134
C           19.08374540957405       -2.41473372584029       -2.42076319324716
C           20.02911847214136       -1.73178108621176       -1.73400028741674
N           17.98152720454630       -0.98019069735934       -0.98138467555192
C           19.33449161507785       -0.84857113662742       -0.84826889763279
C           19.99238791488183        0.02173995106186        0.02363089208294
C           19.29558878658240        0.87624951532721        0.88041800465301
C           19.94925781917102        1.77482331719963        1.78165416496448
C           18.97283758577203        2.43633051069348        2.44571783147704
C           17.72818835252023        1.93716199516194        1.94547541164880
N           17.93710267405089        0.97696879378795        0.98218390632852
C           16.50471363266622        2.38118525575685        2.39173923543863
C           15.30158330347561        1.90671293362617        1.91644142279454
C           14.03060168846556        2.37337993446339        2.38564054660753
C           13.08868683328861        1.68809705177919        1.69800212670911
C           13.78843046926907        0.80569890134181        0.81159451633396
N           15.14576412225401        0.94547175130420        0.95155916672501
H           12.07016658304164       -0.06901319670467       -0.06709437237944
H           12.09821919905174       -1.89363500297682       -1.90135057917001
H           14.04788139507591       -3.22207627205778       -3.23627998204241
H           16.63182353867522       -3.17971086032386       -3.19243618661831
H           19.20977349126241       -3.17048388568089       -3.17957754004312
H           21.10244383197743       -1.80420205889721       -1.80538067537415
H           21.01880742753917        1.87098354186952        1.87800170374347
H           19.06408485099607        3.19492673568125        3.20669342475474
H           16.48687016125403        3.14613447681846        3.15926598656063
H           13.90183329622470        3.12899099039481        3.14438753550733
H           12.01444864665157        1.75573598445295        1.76633868238548
Co          72.37994600204837        0.00011420520596       -0.00850977994229
C           75.78921965908881        0.05930051459789       -0.01322538904936
C           75.11357735104832        1.25784317742997       -0.07356995683632
C           75.77079442305656        2.52981731302029       -0.13812622328684
C           74.79686859467591        3.46743160491920       -0.18136757924175
C           73.54877064715600        2.76454037895156       -0.14320147226819
N           73.75026941384245        1.40992593010844       -0.07794903007001
C           72.32420302121683        3.39504103738340       -0.16816855132415
C           71.12274715384663        2.72520208217029       -0.13208958450061
C           69.85512292418409        3.38907380975194       -0.15812911547377
C           68.91082909506908        2.42057674789925       -0.11254047337366
N           70.95988875520501        1.36038063053059       -0.06999711958512
C           69.60666776469593        1.17159707404029       -0.05921605376503
C           68.95083221349721       -0.05982921871540       -0.01254832326604
C           69.64881460547315       -1.26743396479940        0.03840244098234
C           68.99692517456161       -2.53976343022444        0.09364817393120
C           69.97445641250917       -3.47445991287990        0.14536479123008
C           71.21823716195755       -2.76685060460466        0.12009160910616
N           71.00790229800317       -1.40868238392662        0.05349765878002
C           72.44237562932476       -3.39420229448760        0.15854973417606
C           73.64440634457918       -2.72184202116627        0.12976592894143
C           74.91629019961005       -3.38085178461644        0.16580040749742
C           75.85695014150120       -2.41016024137380        0.11607225004660
C           75.15579320186470       -1.16193951362881        0.05063223758742
N           73.79865410424004       -1.36122070431949        0.06011661211571
H           76.87266736524415        0.07812217034100       -0.01518210105532
H           76.84119047978999        2.66175516756229       -0.14728079838514
H           74.88939817919709        4.54069748636255       -0.23410046102841
H           72.30532113111884        4.47742020303879       -0.21909899749051
H           69.72792010401510        4.45883844995956       -0.20594648255746
H           67.83738909005052        2.52104154199068       -0.11470934174264
H           67.92756826633557       -2.67737583781722        0.09346654331398
H           69.88454126907874       -4.54787512839174        0.19627535361790
H           72.46124236773399       -4.47645075294175        0.21259408156483
H           75.04642345529194       -4.45007488979500        0.22124233181332
H           76.93131316487040       -2.50484398029991        0.12175700318256
C           21.39510293369035        0.03590824832428        0.03683566631642
C           22.62023062212598        0.04075135340518        0.04101119023777
C           23.96170067943615        0.04192480371333        0.04223265132680
C           25.19331889234222        0.03574846764792        0.03732996582911
C           26.52967465723198        0.02722831415426        0.03060004520473
C           27.76136499409268        0.01630792504057        0.02164091231945
C           29.10231018024144        0.00488958296649        0.01148215624169
C           30.32785382080799       -0.00648954329859        0.00233426642425
C           40.00379909854180       -0.05870975053164       -0.04141403302287
C           41.22970833502971       -0.05510296048894       -0.03882170221639
C           42.57014499955010       -0.04826481772756       -0.03396731072439
C           43.80246975966492       -0.03439973749932       -0.02581078685355
C           45.13801123347108       -0.02334056991427       -0.02049350847363
C           46.37028193214473       -0.01509259027619       -0.01613547461257
C           47.71081556482781       -0.00964498027722       -0.01227087651524
C           48.93671107698558       -0.00584435688169       -0.01354711886089
C           58.61346963468360       -0.06008424777178       -0.03881781765044
C           59.83860323604384       -0.07000545787684       -0.04020161287992
C           61.18044015626482       -0.07970540684868       -0.03880388488765
C           62.41167953315890       -0.08830233511673       -0.03564025588158
C           63.74891240280557       -0.09426176486570       -0.03087640461177
C           64.98003832447826       -0.09710273732804       -0.02641760537344
C           66.32235348608508       -0.09163657411917       -0.02127441938842
C           67.54699445885538       -0.08158593922716       -0.01661063053114
Co          35.16600436468626       -0.03056063142092       -0.02554277821318
C           31.72944460029848       -0.01357484653822       -0.00696026294110
C           32.41726849944293        0.89553575724308        0.80121962765496
C           31.75287099777751        1.84205719073180        1.64312294200335
C           32.72213229703239        2.55050737374042        2.26899720500183
C           33.97100410198215        2.02990092930426        1.80436825660031
N           33.77384324563997        1.01180470683108        0.90137818378860
C           35.19084656342967        2.50789073523612        2.22769164564017
C           36.40113704228860        2.01661162547031        1.79337053729931
C           37.66005914508117        2.52360096436159        2.24607910505175
C           38.61548114566380        1.80447599043236        1.61123869442717
N           36.57873107462972        0.99617926636521        0.88881212657252
C           37.93275355239298        0.86510194838074        0.77600380433652
C           38.60277467755289       -0.05264448248579       -0.03792750432595
C           37.91547766639889       -0.96019072057986       -0.84847873595009
C           38.57994726172176       -1.90605516417429       -1.69094839596381
C           37.61072152649819       -2.60959222401691       -2.32246413332196
C           36.36164184840128       -2.08746174029501       -1.85961496448174
N           36.55895572408730       -1.07274510387219       -0.95274832285173
C           35.14181031797276       -2.56213888138379       -2.28592103156380
C           33.93120072323822       -2.07272875190005       -1.84916421150672
C           32.67227250457900       -2.58022908351501       -2.30116874661617
C           31.71674842805206       -1.86582112544941       -1.66107840044004
C           32.39929861039874       -0.92786503776987       -0.82420831185198
N           33.75367169142144       -1.05599259088132       -0.94057133275805
H           30.68235438650627        1.93620356423923        1.72926491803849
H           32.62278551671657        3.35356092749411        2.98173766755725
H           35.19851528203071        3.31880409382996        2.94690496003938
H           37.77500665899691        3.32559048919347        2.95765094347665
H           39.68772045430048        1.88714921120159        1.68737041229489
H           39.65051886537531       -2.00271885864685       -1.77422219175810
H           37.71032113992455       -3.41054533181875       -3.03753082182384
H           35.13377844604737       -3.37045662202062       -3.00808145059985
H           32.55737214651652       -3.37984646446432       -3.01545157928586
H           30.64444594307797       -1.95010981176172       -1.73466872662017
Co          53.77442526495681       -0.03082302168871       -0.02649718507053
C           50.33787928718694       -0.01104699966013       -0.01678471325542
C           51.02401698245549        0.89634607129171        0.79470042896837
C           50.35802124060784        1.84123122594693        1.63735654204925
C           51.32608556833207        2.54678475686555        2.26817051881771
C           52.57611040269077        2.02710910181519        1.80486056702760
N           52.38026404833548        1.01099717782228        0.89884696375400
C           53.79498036849447        2.50614945273503        2.22808860762328
C           55.00623190943689        2.01922872550116        1.78964551428537
C           56.26439760816631        2.53197922865500        2.23769851170375
C           57.22092215853719        1.81672727422216        1.60009242405974
N           55.18494122569998        0.99917401599590        0.88541345324492
C           56.53986195237929        0.87276401950283        0.76879021338866
C           57.21082755859815       -0.05050443577358       -0.03659289197801
C           56.52494522858888       -0.96637633204466       -0.83777160748109
C           57.19033367708663       -1.91840991258205       -1.67254115100970
C           56.22193360124474       -2.62432713880400       -2.30260749630123
C           54.97240176592167       -2.09773655276253       -1.84664586054784
N           55.16800889139000       -1.07860283524524       -0.94488176793397
C           53.75315063243765       -2.57190972578860       -2.27670782143546
C           52.54239216256489       -2.07763040363768       -1.84800896820795
C           51.28391789149831       -2.58236624580554       -2.30473318206460
C           50.32770261092207       -1.86366516896724       -1.67077573706251
C           51.00932595834142       -0.92628942364141       -0.83217246425633
N           52.36340429779273       -1.05800566468180       -0.94233215125800
H           49.28727840059311        1.93608588328056        1.72045736631367
H           51.22551949286667        3.34797176546955        2.98285898457937
H           53.80230791171726        3.31589115653450        2.94862053936832
H           56.37819325322785        3.33498474888785        2.94833111634281
H           58.29306417819704        1.90362026528998        1.67277089780171
H           58.26096106557159       -2.01660159525905       -1.75278669375243
H           56.32234373551720       -3.42920852847284       -3.01315088925309
H           53.74692520868579       -3.38313732441876       -2.99557322245786
H           51.16986109795522       -3.38321860441911       -3.01776045737594
H           49.25554814959803       -1.94515194922572       -1.74940391570758
