314
 energy: -523.651570753431 gnorm: 0.000662216899 xtb: 6.5.1 (b24c23e)
C           43.56644010264633       -0.09466437424644        0.00228234518623
C           44.18270283341695       -1.16831595333110        0.63207445517506
C           43.53933763618979       -2.28645101511349        1.23309023854434
C           44.50691421542521       -3.10249517816251        1.74808147391212
C           45.77260455371540       -2.50438313776796        1.48625674938297
N           45.52644354867609       -1.34713706370048        0.80350304228975
C           47.03795976605548       -2.99279481152722        1.83128867039394
C           48.24953022168157       -2.37958607183201        1.50488565496223
C           49.54817834603963       -2.87797565503194        1.92140734327548
C           50.46495958825877       -2.03065181614155        1.41009895929414
N           48.39912421361101       -1.23933594960004        0.77546140559886
C           49.72494992706266       -1.01036585149360        0.69287345025977
C           50.35709328951575        0.05263448982796        0.01574569295098
C           49.71535034204409        1.10974707322073       -0.65687151755421
C           50.35312738803948        2.16939970964506       -1.35494730572053
C           49.38091485313817        2.99098843204587       -1.85428861155049
C           48.11803520391755        2.46115526520204       -1.46933974824726
C           46.85345857125809        2.97515495119742       -1.77355642806384
C           46.81497498034908        4.24622400952787       -2.53743442057324
C           46.21423246114650        4.29706970682870       -3.79616342644832
C           46.18118844451202        5.48558617569165       -4.50977240710170
C           46.74214248056271        6.63734814203090       -3.97481226592501
C           47.33976903259681        6.59550426645754       -2.72248643406337
C           47.37952664838036        5.40762147976799       -2.00797244507423
C           45.63991747828480        2.37964040470917       -1.41353777660110
C           44.33239268941124        2.95089062589532       -1.69674902241351
C           43.42271030692967        2.08704296094426       -1.20277864285537
C           44.17322100265998        0.99545732228100       -0.60751338913394
N           45.50475314244382        1.20976992138070       -0.74532462780314
N           48.37253414363266        1.32010259145825       -0.75471249894595
C           47.07492743093470       -4.26006967659768        2.60240656529640
C           46.47583805538287       -4.34070876359551        3.86026372570847
C           46.51263955915892       -5.52562162173457        4.57993263598606
C           47.14223205847756       -6.64425991728715        4.05136153792622
C           47.73780985928731       -6.57293010817348        2.79935302812350
C           47.70708322494795       -5.38864749727706        2.07864345083418
H           42.48133172766424       -0.11742664294008       -0.00736896184385
H           42.47189293143742       -2.43778126154011        1.25635341934547
H           44.36319175220934       -4.04153000742042        2.25751038934682
H           46.24673328628465       -0.71545284113764        0.46978699023606
H           49.71352335648687       -3.74994522249278        2.53316525033771
H           51.53866219551104       -2.06482206624964        1.50303754468665
H           51.42057231814461        2.27737407681567       -1.46059479418378
H           49.52204285706395        3.88042641152734       -2.44641102812441
H           45.78749656786263        3.39545755604249       -4.22126169740645
H           45.71624355672767        5.51216207178299       -5.48906345252893
H           46.71352861714750        7.56625002228973       -4.53300817324400
H           47.77636816534560        7.49300968359771       -2.29846976594360
H           47.83432985482419        5.38048990394182       -1.02389272644314
H           44.15947444001903        3.89133246936997       -2.19480785299874
H           42.34633985264148        2.15826262752892       -1.21630016175283
H           47.65451458418269        0.71814294926190       -0.36523183959539
H           45.99627699980860       -3.46401991091188        4.28150398527253
H           46.04879217764162       -5.57488622118937        5.55887442578954
H           47.16888085256137       -7.57023609457781        4.61449854637637
H           48.22834816079374       -7.44470287094536        2.38074330599163
H           48.16141342352920       -5.33834455030005        1.09542716328685
C          124.70709499488525        0.05476550742872       -0.07812597346055
C          124.08401759644720        1.07919749518957       -0.77917173196555
C          124.72046279893809        2.10673006223087       -1.53049872975987
C          123.74734115630318        2.91514328267925       -2.04711049215194
C          122.48500686193833        2.41292746213400       -1.61989095627734
N          122.73869621883935        1.30086778881866       -0.86826531531782
C          121.21610028863954        2.92671931767419       -1.91068909064900
C          120.00859473400666        2.36080640804104       -1.49576176085593
C          118.70637549688637        2.94599142208503       -1.76043822140264
C          117.79510900917877        2.11279323179609       -1.21704285260141
N          119.86657224397028        1.20780679285633       -0.78509238328289
C          118.54202009758127        1.02666650721523       -0.61252019864162
C          117.91669619177381       -0.05344353038447        0.04379717639201
C          118.56559380900252       -1.11755964914305        0.69825085702232
C          117.93558022958700       -2.21399673054933        1.34453961748670
C          118.91323936712284       -3.01046488375252        1.87324398094845
C          120.17168789311003       -2.41972330992603        1.57148856105447
C          121.43946631724228       -2.90154331395684        1.91301243070030
C          121.48617200495933       -4.13688314450540        2.73292539514811
C          122.10512312345718       -5.28824576923962        2.24392409564344
C          122.14666710538678       -6.44200825093411        3.01206405422888
C          121.57613104379438       -6.45956878324880        4.27760345739030
C          120.96012537728157       -5.31789336371259        4.77192524286999
C          120.91182687357481       -4.16370523092346        4.00469641852188
C          122.64899941238156       -2.30659554116889        1.53882435017752
C          123.95946363984957       -2.79380399427579        1.94068973803470
C          124.86375308035400       -1.96764530176757        1.37723141651730
C          124.10689385473161       -0.96920864186215        0.64276904367868
N          122.77695255339928       -1.19915650776204        0.77027894633042
N          119.90938756806574       -1.28349909235216        0.85206262639599
C          121.16974683253275        4.16752685621773       -2.72314931870185
C          121.76311744053078        5.34167356184115       -2.25746454468201
C          121.71705574201266        6.50024225674596       -3.01834093054646
C          121.08386686417212        6.49955312153020       -4.25373219733338
C          120.49384990289610        5.33471331712810       -4.72529691457528
C          120.53376076786024        4.17549004269152       -3.96540415539188
H          125.79222113298761        0.06516270581202       -0.09956279770546
H          125.78734492162305        2.20048459927501       -1.65640929724632
H          123.88522759232048        3.77943275977881       -2.67635968310870
H          122.02229087999517        0.72304935247150       -0.44153634865732
H          118.53516585550831        3.87512286798193       -2.27940752997983
H          116.72097110245127        2.20602630995162       -1.20491533953983
H          116.86938643105799       -2.36723494612581        1.38963322146000
H          118.77873157864526       -3.93180722788203        2.41607764285601
H          122.53953635944659       -5.28039756540292        1.25047756310510
H          122.62593858734017       -7.33219792524521        2.61994870310395
H          121.61160806797237       -7.36162966170174        4.87784309712246
H          120.51591728061621       -5.32509418461308        5.76114314107189
H          120.44268229210954       -3.26880827786642        4.39847487130693
H          124.13778649327250       -3.64534196762103        2.57745577021645
H          125.94017115464703       -1.99929984914549        1.44165734676450
H          120.62298047860594       -0.66286659604235        0.48436550523110
H          122.24537802199693        5.34853448403163       -1.28618694531688
H          122.17645482001883        7.40827039299705       -2.64371232776037
H          121.04999693339242        7.40562610366294       -4.84799558248974
H          120.00045507324413        5.32813370663173       -5.69088670267014
H          120.08362397898864        3.26327621875017       -4.34078637701833
C           51.76265208063219        0.07068493116032        0.00479938915313
C           52.98719530691835        0.08255629352588       -0.00991758315054
C           54.32981803468349        0.08832446300979       -0.02449320773118
C           55.56052880603129        0.09019033927256       -0.03691119906909
C           56.89839684542309        0.08937599455129       -0.04799674400658
C           58.12919766552078        0.08156062177909       -0.05808289484924
C           59.47166501667579        0.07787839613210       -0.06103360206848
C           60.69651642473681        0.06760852590625       -0.06571285678474
C           70.36753223184004       -0.03651751290680        0.06315237942207
C           71.59269141681585       -0.04693022134817        0.08260487019048
C           72.93417871749199       -0.05319637287760        0.09617980974199
C           74.16555452188042       -0.05166355396829        0.10446180171706
C           75.50244738404997       -0.04836214327505        0.10605176309011
C           76.73383288063866       -0.04152330015146        0.10160741153270
C           78.07532218447173       -0.03479254178151        0.09114300938471
C           79.30060216841099       -0.02705857289066        0.07540015189750
C           88.97339738250822       -0.03431515611833        0.06358224355647
C           90.19868044894800       -0.04080869465423        0.07861840878081
C           91.54014182630813       -0.04022904831518        0.09251500290401
C           92.77154974673844       -0.03966290062144        0.09918417516448
C           94.10842970866108       -0.03290555067260        0.10087367948279
C           95.33983516473650       -0.02932813040905        0.09538021885683
C           96.68132369291087       -0.02515840735422        0.08171276232442
C           97.90653975912082       -0.02255580616274        0.06193206893775
C          107.57792071996695       -0.08211425688041       -0.01062965812869
C          108.80268998325981       -0.09836475297953        0.00372294472024
C          110.14494719352025       -0.10844814039721        0.01835838284917
C          111.37575623027256       -0.11633853314296        0.03042383572919
C          112.71350852289122       -0.11778692357376        0.04220917599797
C          113.94428866234234       -0.11327362647249        0.05015747218197
C          115.28682132240276       -0.09969065528493        0.05553581496891
C          116.51140034520547       -0.07940002625591        0.05394297729169
C           62.10115548862768        0.05922229115365       -0.06238655231017
C           62.73297223861731        1.21202275953920        0.44285205509168
C           62.08923224655849        2.36524699377310        0.96125189764085
C           63.05840933201386        3.25761628245656        1.33045008947996
C           64.32286049012318        2.67627526785047        1.04120613530179
N           64.07517258202644        1.43689306893141        0.51430320653050
C           65.58456999986235        3.24004847483734        1.26615415020518
C           66.80769793412941        2.61616161559783        1.01824497382698
C           68.09637974250673        3.25366107379807        1.22099055762927
C           69.03154297016303        2.34227346342521        0.88205862970253
N           66.98164190617074        1.35026426279529        0.54635098504352
C           68.31265365507709        1.15529289562221        0.46306229682279
C           68.96422749091644       -0.02052735381631        0.03704436138033
C           68.33125609234978       -1.19098631957724       -0.42536579494114
C           68.97277915171286       -2.38703564320279       -0.83867137764270
C           68.00394281893178       -3.26986966012963       -1.23110775177812
C           66.74213035514225       -2.63415825955963       -1.07526372837827
C           65.48163491853487       -3.17554960702374       -1.35437349402848
C           65.46426018369736       -4.54486409038606       -1.92805753443134
C           66.05732766672736       -4.80027982357767       -3.16513147617449
C           66.03627750148762       -6.07888302245174       -3.70183212336738
C           65.42971308605945       -7.11721959937596       -3.00825468489325
C           64.84114618074139       -6.87165369984566       -1.77513349182761
C           64.85506566340732       -5.59339677007843       -1.23764833523988
C           64.25892912746735       -2.53816029456789       -1.13835399998228
C           62.97300661194458       -3.11657309189653       -1.48532258727868
C           62.03726819316695       -2.21662154653352       -1.11861435681209
C           62.75336130070388       -1.08660009910163       -0.56069969179154
N           64.08390959728811       -1.30243113241788       -0.59389035967609
N           66.99074671757113       -1.38317661235696       -0.57630103702730
C           65.60103032102870        4.61951126697162        1.81523670757726
C           65.05095808246067        5.67557262320380        1.08760646414893
C           65.06917655872022        6.96416114745422        1.59993364144195
C           65.62978825315585        7.21225339173728        2.84545075874234
C           66.17561762549154        6.16606964737108        3.57679280155018
C           66.16466951907785        4.87706949681112        3.06543468562874
H           61.02107772311556        2.48634261773742        1.04202426631432
H           62.91271763446256        4.22932271646890        1.77326379563157
H           64.79309897506074        0.78050587881363        0.22624349092001
H           68.24339073219986        4.26496801860620        1.56381351312240
H           70.10513499364956        2.44125633947730        0.89694427149581
H           70.03913820660895       -2.54499313745711       -0.82908678729472
H           68.14785408169361       -4.27642246362445       -1.58842417225461
H           66.52006526540966       -3.98775981149927       -3.71435167521434
H           66.49457068191435       -6.26460217601034       -4.66689470712249
H           65.41556192300928       -8.11650272475458       -3.42833646559148
H           64.36888579890294       -7.67997996761055       -1.22796928467604
H           64.40518580968093       -5.40527141277124       -0.26921639121708
H           62.82839092725299       -4.07532899677539       -1.95620980735841
H           60.96526278133370       -2.28229898551497       -1.21412696120516
H           66.27428838246149       -0.70192197978234       -0.34867587614637
H           64.62393422025028        5.48552330093667        0.10908775944091
H           64.64449264905936        7.77826554387956        1.02308934126465
H           65.64136392450436        8.21973872738628        3.24555904400163
H           66.61176848668563        6.35423701467988        4.55156594316885
H           66.58083821956508        4.05897359599571        3.64264549097280
C           80.70396682040779       -0.01854669676445        0.05512788353213
C           81.33250861126793        1.14016274590989        0.55211824280221
C           80.68621763138529        2.28633578748939        1.08238474162896
C           81.65226079603302        3.19256703841865        1.42567837588963
C           82.91696518545450        2.62633801065968        1.10931763562634
N           82.67295346207187        1.38165379236238        0.59301717733553
C           84.17607935258761        3.20742496343750        1.30300822071685
C           85.40170095317939        2.59578227467686        1.03724160055731
C           86.68674202019032        3.24787665708605        1.21504799908290
C           87.62606962983413        2.34194467201398        0.87288607258743
N           85.58147088836425        1.32773843309350        0.57328637728595
C           86.91309674206262        1.14474426195842        0.47375392640425
C           87.56998556445102       -0.02751477768614        0.04604383689363
C           86.94149401422956       -1.20137146812667       -0.41409291102326
C           87.58783919317146       -2.38903896209273       -0.84336036812222
C           86.62173746669150       -3.27551489393704       -1.23471911872791
C           85.35693022283991       -2.65101704036126       -1.06021424739172
C           84.09775458921170       -3.20112169365581       -1.32933821019002
C           84.08695360435544       -4.56236664689857       -1.92215286278708
C           84.66443382198199       -4.79197369618756       -3.17162321773982
C           84.64966646728924       -6.06226989850133       -3.72782518757767
C           84.06523929412356       -7.11799258094374       -3.04150724051276
C           83.49267144123601       -6.89818161707501       -1.79605797399270
C           83.50019252984028       -5.62823408796237       -1.23900797907512
C           82.87211055205638       -2.57988718183540       -1.08688827483581
C           81.58695158889927       -3.16929564136729       -1.41728039619574
C           80.64765726555879       -2.28502220843333       -1.02242571077389
C           81.36074110864898       -1.15261129006258       -0.46558048035356
N           82.69240829862292       -1.35201642321373       -0.52517121476240
N           85.60096108545369       -1.40261332097497       -0.55297990774379
C           84.18680945278783        4.59234950805697        1.83817044992466
C           83.60814903583710        5.63366015445801        1.11140052968153
C           83.62281445115742        6.92815906608443        1.60867797106178
C           84.20831343037726        7.19690927583672        2.83835413540953
C           84.78205531528242        6.16538196781116        3.56915148671796
C           84.77464124389985        4.87053733509359        3.07271363654051
H           79.61873487153028        2.39415988219717        1.18729675857763
H           81.50451858102664        4.16408798858604        1.86823193429107
H           83.39192831032567        0.73349328165415        0.28938247541105
H           86.82883562857413        4.26395177061726        1.54557983710854
H           88.69874748677348        2.45139581220195        0.87187322048502
H           88.65539684302422       -2.53893177858480       -0.84590181146354
H           86.76951012074100       -4.27761880609672       -1.60280620827413
H           85.11002688162932       -3.96584163754894       -3.71468084273962
H           85.09551434254507       -6.22784779696396       -4.70233560056220
H           84.05598106633440       -8.11079873095160       -3.47681382980508
H           83.03797519585684       -7.72025249545058       -1.25451717398224
H           83.06298055335712       -5.46025255998980       -0.26112086056224
H           81.44474838189221       -4.12427523372828       -1.89649157228552
H           79.57492104024577       -2.36270908378423       -1.09874656039093
H           84.88197243783299       -0.72849715829718       -0.31245788542072
H           83.16169553226366        5.42755813821875        0.14488056855202
H           83.17604364530993        7.73072295351902        1.03235056423373
H           84.21749188299010        8.20905490746033        3.22657664391664
H           85.23758896370234        6.36964807994057        4.53174122961637
H           85.21277898385765        4.06388256378239        3.64975661183496
C           99.30993404231094       -0.02313821782713        0.03796180461298
C           99.94764940149220        1.13177508593418        0.53180492360905
C           99.31072053657681        2.27938064883139        1.07052415269896
C          100.28340757684293        3.18012462478537        1.40910902094337
C          101.54313768973691        2.60978710448435        1.07991179915000
N          101.28938076164019        1.36741240155473        0.56240989221406
C          102.80622105582974        3.18580225418090        1.26100948616086
C          104.02654945160099        2.57029316269158        0.97824083718398
C          105.31578726718796        3.21922891121581        1.13695919623231
C          106.24787815951289        2.30944179473852        0.78542534579552
N          104.19614477320366        1.30094605785715        0.51546323368350
C          105.52632169852072        1.11267689060591        0.40070982429781
C          106.17353940106828       -0.06633359616722       -0.02117125530213
C          105.53631487330881       -1.24171202561804       -0.46373530359921
C          106.17396762367235       -2.43689940904237       -0.88545068995081
C          105.20109878713610       -3.32173439315353       -1.26319201862293
C          103.94058355040036       -2.68876681046618       -1.08761605372716
C          102.67703171025536       -3.23359817803547       -1.34683688830630
C          102.65609644181323       -4.59856990210776       -1.93067371819628
C          103.22783215186362       -4.83908670062374       -3.18076977488685
C          103.20496015773119       -6.11283425843620       -3.72867541068311
C          102.61809071380482       -7.16126860152743       -3.03330083257309
C          102.05101170249593       -6.93056525006018       -1.78731354820672
C          102.06655384054550       -5.65705620268449       -1.23856805697766
C          101.45650757150531       -2.60308802237261       -1.10307645608594
C          100.16615987853352       -3.18592860974004       -1.42477302947363
C           99.23438112746641       -2.29315816101500       -1.03129803130956
C           99.95721509947988       -1.16262789537571       -0.48298321046398
N          101.28718989325550       -1.37100381869967       -0.54729282234643
N          104.19384608760519       -1.43735810002830       -0.59293121205350
C          102.82943771435552        4.56784463752624        1.80285391200951
C          102.24181791984897        5.61545380014360        1.09251085455527
C          102.26839139021885        6.90665672664658        1.59787193530529
C          102.87508092790677        7.16595479672796        2.81927045988554
C          103.45818054725558        6.12821572386278        3.53369352044745
C          103.43871120154773        4.83668648684026        3.02915597053160
H           98.24460715935825        2.39132736716870        1.18471220874574
H          100.14340498726754        4.15064803432497        1.85634806385169
H          102.00326315683371        0.71705496844881        0.25156319248080
H          105.46514052965102        4.23611883943096        1.46174386042311
H          107.32076608692225        2.41567733797649        0.76978717601572
H          107.24071427510557       -2.59230631905129       -0.89279451540447
H          105.34147727359606       -4.32798401981254       -1.62276253579116
H          103.67552479299233       -4.01863139080565       -3.73068244322609
H          103.64651182992019       -6.28686897919974       -4.70366971558865
H          102.60269640742990       -8.15687220591898       -3.46199730649534
H          101.59447324473048       -7.74695507206329       -1.23877046715545
H          101.63372539862685       -5.48067500858157       -0.26020694823611
H          100.01583311458440       -4.14275979689392       -1.89779208296637
H           98.16085400108474       -2.36430507101365       -1.10269820916130
H          103.47945161903303       -0.75755435489785       -0.35473378718867
H          101.77906302609209        5.41705344668564        0.13206742333503
H          101.81432213080525        7.71415462960695        1.03427978091392
H          102.89356361333705        8.17554257555302        3.21376596686105
H          103.93047696667212        6.32501065350758        4.48973560374703
H          103.88418155441349        4.02514841952748        3.59361097406298
