132
 energy: -262.777186922692 gnorm: 0.000439782624 xtb: 6.5.1 (b24c23e)
Ni          13.43147975451082        0.04918560844249       -0.00575185059594
C           10.03689573700066        0.07777243855197       -0.13637064582049
C           10.68986152150244        1.28824772756211       -0.03943712967378
C           10.00917747433623        2.54472843989058        0.03518368181377
C           10.96524529731236        3.50028209236266        0.09705871458538
C           12.22979331509338        2.82633174817589        0.04915061353028
N           12.05050122553285        1.46682913220148       -0.01467914689539
C           13.45335523686266        3.48209746373958        0.06628337194513
C           13.46456005181081        4.96652527242019        0.10235857210693
C           12.94826372182912        5.69688752608397       -0.96744115929633
C           12.96436268165841        7.08664784379279       -0.93378673755063
O           12.47368748764689        7.80734053608233       -1.97134382465859
C           13.48922649173860        7.74906833402869        0.17699866809265
O           13.48762477121313        9.11930259132207        0.18417674872700
C           13.99971518949072        7.01851857304298        1.24704197665893
O           14.49270155138953        7.73860302758592        2.30320996553276
C           13.99422147215509        5.62951691045038        1.21224269296995
C           14.66709031997126        2.80917219178670        0.04989348067968
C           15.93653626236906        3.46974663138321        0.01751373150176
C           16.88257826917657        2.50058359281109        0.02874055472118
N           14.83511544879624        1.44221029354052        0.05713889906361
C           16.18950196466790        1.25245524692093        0.06021179199611
C           16.84731655587445        0.02021163975225        0.10584462627161
C           16.16727036429923       -1.20047231298962        0.12054111167876
C           16.83843529541062       -2.46043879983514        0.16426177889909
C           15.87811210209906       -3.41381281972562        0.11638456432213
C           14.62092472357886       -2.73203774116916        0.05100596354785
N           14.81139677839463       -1.36775827196151        0.05738218966842
C           13.40142001718841       -3.38353322399147       -0.06627711672113
C           13.38884080619044       -4.86844203319752       -0.10093782453128
C           13.78512268845485       -5.59948768337445        1.01827849637239
C           13.77034843551583       -6.98927989700350        0.98267423597130
O           14.14597371632686       -7.71101397815462        2.06648187725477
C           13.36625252147752       -7.65075770721001       -0.17812502919779
O           13.36671363009575       -9.02108797887998       -0.18533082805497
C           12.97417236125168       -6.91935666371634       -1.29634756021896
O           12.59461661729181       -7.63837482945578       -2.39923419434720
C           12.97941859593460       -5.53026417680978       -1.26112107453805
C           12.19229750684080       -2.70707728662296       -0.15895997517589
C           10.92027544535287       -3.36232304077852       -0.24899198221137
C            9.97881602555724       -2.39037678106205       -0.27033390567448
C           10.67531171347266       -1.14355796670655       -0.18507793216358
N           12.03158134113265       -1.34431608286689       -0.12192152321137
H            8.95366304637678        0.08639513526670       -0.17091342506112
H            8.93690135554045        2.65914360546728        0.04245246582631
H           10.83954666667221        4.56802964017897        0.17318141514999
H           12.54912657720461        5.19267704193019       -1.83801212852309
H           12.57517272274911        8.75069661636246       -1.76255129677567
H           13.88385848820121        9.41422037491296        1.01956993480017
H           14.82114666053146        7.15164793276655        2.99682476651445
H           14.38400853718865        5.06640698354454        2.05205677540491
H           16.07561632652911        4.53783872967488       -0.01893555426627
H           17.95538617572917        2.60539254528160        0.01370655552160
H           17.90817506845722       -2.58290805868292        0.21648158610337
H           16.00012657507318       -4.48448131250947        0.11432001573517
H           14.09013646036981       -5.09586225197301        1.92642158383236
H           14.06810682123165       -8.65409281052873        1.84661213854078
H           13.06245990390719       -9.31564686583101       -1.05848562911128
H           12.34486416169719       -7.05054864249246       -3.12415541785503
H           12.68350980194945       -4.96648322512088       -2.13801538329128
H           10.77870979655690       -4.43049140848831       -0.27817346910803
H            8.90642179128252       -2.48851875180899       -0.32824200966501
Ni          32.00635405163654       -0.05121657265009       -0.00946573800972
C           35.40108493836856       -0.06255361928410       -0.14115202163328
C           34.74885764610382       -1.27655809504115       -0.18368482968084
C           35.43030332270862       -2.53291757268443       -0.25383939430347
C           34.47482007564076       -3.48982333966046       -0.30241674113377
C           33.20988274931980       -2.81559354802195       -0.27213864194475
N           33.38832031353562       -1.45761855060757       -0.17979609474764
C           31.98675935241795       -3.46985927660296       -0.32824499600788
C           31.97595441482143       -4.94883157488952       -0.46103001928667
C           32.48698349454573       -5.55272122335306       -1.60930431236450
C           32.46952273434654       -6.93726752294149       -1.73417199084620
O           32.95453381041248       -7.53530484758587       -2.84942267942958
C           31.94893731433344       -7.72168003147003       -0.70371248378411
O           31.94879017126497       -9.08378485718330       -0.85290060658124
C           31.44424867295701       -7.11758647754392        0.44503560159904
O           30.95545077786037       -7.95304388971699        1.41465053539886
C           31.45081624509335       -5.73365939829026        0.56860239534482
C           30.77258658628411       -2.80042084602226       -0.26644080942161
C           29.50357424413403       -3.45416187665338       -0.37178635246750
C           28.55689620954951       -2.49308544478357       -0.25131941785096
N           30.60365735171489       -1.44311504855745       -0.10493885832262
C           29.24916907575663       -1.25589742136907       -0.08006633841515
C           28.59043179131109       -0.03707089288398        0.10400113727295
C           29.26958824266250        1.17445227829123        0.25755542979149
C           28.59775400300235        2.42082596085751        0.44488645515852
C           29.55752066305094        3.37403691873370        0.50561973707587
C           30.81503357029599        2.70496698824820        0.36203512091733
N           30.62536085167740        1.34868326841892        0.21337012251323
C           32.03401231504079        3.36634563738444        0.31806442585557
C           32.04620217657405        4.84573081493064        0.45127809070718
C           31.65355707718314        5.44553281625224        1.64716746447528
C           31.66951970397982        6.83042825481786        1.76910885381961
O           31.29788116354150        7.42505393668119        2.92884314842123
C           32.07088617100853        7.61883825356185        0.68947927070263
O           32.07190571837649        8.98116566453143        0.83757882435370
C           32.45895307622314        7.01853554980497       -0.50558446475751
O           32.83593043653823        7.85763241465251       -1.52107046870627
C           32.45272312106955        5.63438706172475       -0.62779483523090
C           33.24355329800313        2.70555806125979        0.14914540282430
C           34.51506439974388        3.36774304184393        0.13394263863584
C           35.45737057126745        2.40502625175510        0.00452806975548
C           34.76182922477172        1.15603188602649       -0.05156866600899
N           33.40535217578596        1.34741161170917        0.03275583865326
H           36.48435696626177       -0.06651669318487       -0.17546079001914
H           36.50265870521599       -2.64669246859243       -0.25973502968624
H           34.60098733764345       -4.55918203172978       -0.34988742247387
H           32.88271349010228       -4.95278906808496       -2.41856727479141
H           32.85248954607081       -8.49621514600222       -2.74920180379923
H           31.55591186896945       -9.47178179425446       -0.05480714151896
H           30.63116419035188       -7.44872078706648        2.17227410911212
H           31.06512084789364       -5.26963721260762        1.46873369685290
H           29.36519801777773       -4.51155254555837       -0.52756946536863
H           27.48414872216139       -2.59635390910105       -0.27724718692243
H           27.52798760642631        2.53582195057835        0.51157991640843
H           29.43502262339207        4.43786412376773        0.62608005604440
H           31.35079574269648        4.84246665539639        2.49335824049404
H           31.37629709248370        8.38690146598775        2.81699376947698
H           32.37421163558270        9.37248664244697        0.00259868196173
H           33.08228881893721        7.35560168904706       -2.30893293575298
H           32.74587864224763        5.17329673985054       -1.56365150374857
H           34.65570266905696        4.43256585375847        0.22478513143516
H           36.52973044021921        2.50985162459156       -0.04108742978415
C           18.25200250375465        0.00877858928596        0.13012966997712
C           19.47613273125260        0.00202996200771        0.14256958751627
C           20.81927219379375       -0.00541282927428        0.15181864585431
C           22.04965458407296       -0.01022273645389        0.15463767210585
C           23.38804317007878       -0.01636757930629        0.15341885760129
C           24.61841804245521       -0.02027222712565        0.14770526801614
C           25.96157848417445       -0.02451168706250        0.13895135953397
C           27.18570659853163       -0.02980718859711        0.12778472780666
