254
 energy: -442.490588341886 gnorm: 0.000282848497 xtb: 6.5.1 (b24c23e)
Cu          34.06320551328749        0.29176167025198        0.19080093764642
C           30.65987404258064        0.20852414596827        0.10131226240384
C           31.31462250328471       -1.01385277696932        0.08135856136628
C           30.65938907770203       -2.29004591447014        0.06968137488529
C           31.63358267229266       -3.23371577619686        0.05932021917831
C           32.89375812052493       -2.54198186196246        0.05196443121831
N           32.66839158993984       -1.19517636191969        0.07271765156210
C           34.14819941065295       -3.15658730548040        0.04540364947566
C           34.19089398549275       -4.63870613663406       -0.02142217091093
C           33.69966142140027       -5.31068419311102       -1.07305482171126
C           33.71937825542418       -6.81501066654795       -1.15417958320320
N           34.64464238005746       -7.38741945515411       -0.17248800503935
C           34.96660442938509       -6.69974039587740        0.96842949829765
C           34.80109001733883       -5.36986098807771        1.07995281674843
C           35.36892515134510       -2.48099257965261        0.09825425914200
C           36.65698780248744       -3.11129401472606        0.03929978809069
C           37.58714601249891       -2.12491563838140        0.10086371163196
N           35.53510611112760       -1.12372270685916        0.18675757140520
C           36.87504771680957       -0.88587254649943        0.19154931657427
C           37.48991698471171        0.37575488380032        0.27570543837121
C           36.81060357653797        1.60567194753791        0.32917415441690
C           37.45573862937592        2.87767145352077        0.45730496979910
C           36.47638835466262        3.81705757860198        0.47590491195510
C           35.22526186422012        3.12485712844000        0.35196406501868
N           35.46199399219613        1.77773878287899        0.26830382518410
C           33.97169920408098        3.73956344021553        0.34570813883525
C           33.93721878790039        5.22138302928574        0.42333959118035
C           33.35995776322849        5.85828903690935        1.45290254326597
C           33.30087446226629        7.36085603336144        1.54602381645389
N           34.24368317260620        7.98786184296800        0.61572224743472
C           34.65741534103282        7.32760285640350       -0.51164686089270
C           34.56522807319404        5.99214540662414       -0.64030090278684
C           32.75102343189694        3.06436948746424        0.27190364348991
C           31.46075534093043        3.69397684168088        0.19910161314357
C           30.53588026060306        2.70402047533755        0.13449572113857
C           31.25226974886624        1.46129325950001        0.15566173405720
N           32.59320467228119        1.70832332292581        0.23639993124895
H           29.57532449775016        0.18204709649952        0.07249317321491
H           29.58999874852051       -2.43174437556364        0.07981576500282
H           31.51660693613657       -4.30544294335313        0.06806571930232
H           33.24749607988381       -4.80067391152177       -1.91572600313123
H           34.04395914631307       -7.13568135338053       -2.15344662925899
H           32.70171261259051       -7.21910451519203       -0.99665523833662
H           34.57790688627470       -8.39113917354721       -0.08538407132813
H           35.44158243186391       -7.29701175301616        1.74023204368138
H           35.10771787010482       -4.83607287584428        1.96823245278105
H           36.82339853256471       -4.17283185569118       -0.04771811218785
H           38.66132868328571       -2.21733009494156        0.08086228741098
H           38.52181758657100        3.02247569619497        0.53015450989649
H           36.58606026007018        4.88501327374178        0.57375636153978
H           32.89118202133115        5.31847810105933        2.26747705334395
H           33.55955217600444        7.68719398027866        2.56257390353713
H           32.27338469893389        7.71589829403682        1.34126471430667
H           34.13105581061166        8.98776200255676        0.53214476405893
H           35.14000392798952        7.95500806585478       -1.25426934350880
H           34.94289722272607        5.48265202630717       -1.51537852865161
H           31.29218398887918        4.75877165176573        0.18636447585661
H           29.46288848875686        2.79349906679323        0.06758912113433
Cu          89.80825352597330        0.22811010622975        0.21284243056710
C           93.21101982180460        0.36430943717164        0.19662356000521
C           92.53981772076965        1.56285029836655        0.38773558773165
C           93.17695289715273        2.82737630911337        0.61838413822894
C           92.18995840655420        3.74747267822913        0.75599193239717
C           90.94016861328471        3.05485056153528        0.59888613441289
N           91.18405354886195        1.72836559169491        0.38463802365987
C           89.67744005095257        3.64762682350391        0.67298156829191
C           89.61352991858183        5.11793744117703        0.86484786780917
C           90.11630028017133        5.96919187184104       -0.04148626582060
C           90.07242830223876        7.46419155539779        0.14052139417918
N           89.11032292083597        7.84383269167939        1.17859967610537
C           88.77674775236653        6.96475313341505        2.17589782989842
C           88.96641389651076        5.63842971199991        2.06090528933640
C           88.46600241880539        2.95956193755802        0.58230785817126
C           87.17031975346822        3.57608689448506        0.60910979621131
C           86.25336466239663        2.58299941712418        0.48828976609893
N           88.31765491168079        1.60535502567009        0.43452122367320
C           86.98132784265255        1.35454507695114        0.37911152344091
C           86.38252027300460        0.08886842102600        0.24563819057402
C           87.07722751541881       -1.12321613105996        0.09162127100545
C           86.44872211091138       -2.40553571804750       -0.01406116237678
C           87.44055426538544       -3.32039165071209       -0.16076359911631
C           88.68289124085580       -2.60150995882037       -0.15030320517618
N           88.42837283401769       -1.26472994836594        0.00935666416931
C           89.94491480501435       -3.18882295202281       -0.26014354778685
C           89.99983756739313       -4.65843397591577       -0.46087345488658
C           90.58150882900908       -5.47017551352873        0.43446412592670
C           90.66524746198445       -6.96213038955031        0.24225583114359
N           89.74279918306553       -7.41622266092030       -0.80200395372887
C           89.32282145418955       -6.55984600411747       -1.78595861627592
C           89.39038816045468       -5.22300343674260       -1.65652647651221
C           91.15694090711538       -2.49698769282001       -0.19567033220775
C           92.45661740320422       -3.08725967248951       -0.36658801536483
C           93.36855973145677       -2.09236739272721       -0.23211435852922
C           92.63503472358319       -0.88328196173262        0.00890333147948
N           91.29669676793239       -1.15611749621168        0.02250014557249
H           94.29542002054406        0.40716097154619        0.19232665238556
H           94.24385819425400        2.97630393947147        0.67598647187473
H           92.29141637795810        4.80160459200771        0.95822303484450
H           90.59497135536628        5.61985624809271       -0.94894064062951
H           89.76951421786067        7.95052503819218       -0.79664789559369
H           91.07803427073370        7.84747649941560        0.39675714338975
H           89.15414214898182        8.81848397086120        1.43874872298002
H           88.27227835640494        7.41219052525841        3.02637556904462
H           88.65069517777800        4.95447031606877        2.83583849008764
H           86.98997629380057        4.63499943292548        0.69992256850190
H           85.17854057156651        2.66630191092945        0.46694133557382
H           85.38421070044873       -2.57357641860183        0.02520110682025
H           87.34521888566901       -4.38976597110507       -0.25858693934624
H           91.03742934223290       -5.08744742253656        1.34019431499105
H           90.40269205680805       -7.47912430789070        1.17536325989582
H           91.70070674069632       -7.25616711537205       -0.01282760779575
H           89.87641784334164       -8.37920499791642       -1.07453968301456
H           88.85666550468703       -7.04218414035925       -2.63923551505611
H           89.00784424800224       -4.56255325420324       -2.42167269385802
H           92.64028115670143       -4.12898525916155       -0.57495433258944
H           94.44341237195177       -2.15583460778207       -0.29888888546308
C           38.89500124394743        0.41019098790475        0.31148901061118
C           40.11862604149483        0.43974885205274        0.34336687283615
C           41.46083929147832        0.47732158381972        0.38154758272619
C           42.69030850081739        0.51491605176130        0.41685289513154
C           44.02729783392371        0.56104156446626        0.45734691195626
C           45.25640029743676        0.60772775740085        0.49677078452730
C           46.59736041982507        0.66733814970943        0.54011351269613
C           47.81987215896678        0.72735456828741        0.58041559682724
C           57.48276269320223        1.22649641549755        0.86646198390641
C           58.70728512848088        1.25580078003050        0.88582886509395
C           60.04922650058294        1.27690133264230        0.90371506666000
C           61.28022596000480        1.28334799143303        0.91646011160167
C           62.61772408203934        1.27679699446887        0.92442129351169
C           63.84866071173325        1.25800243768100        0.92746482182454
C           65.19044661934117        1.22316643552059        0.92339411448132
C           66.41468124198269        1.18003515396710        0.91630620380964
C           76.06512047682087        0.49136537453791        0.62266203128600
C           77.28368611797013        0.38309077798546        0.56736538497321
C           78.62113356125197        0.27588468487041        0.50764536147103
C           79.84729562929637        0.18678875626018        0.45360281582878
C           81.18259181899906        0.11283769238178        0.39821695609810
C           82.41107412530664        0.06139460744036        0.34993404425920
C           83.75356252752846        0.04128975354654        0.30643744632846
C           84.97748816617793        0.04187696427569        0.27303757504973
Cu          52.64943916452486        1.00529806166590        0.74376010194695
C           49.22201289297569        0.80580094597874        0.62701041063553
C           49.85760700820802        1.60965213481581       -0.33699745880183
C           49.16732546055638        2.38311368653509       -1.32446514536079
C           50.11448758074290        3.01237076730140       -2.06607284493221
C           51.39053276727265        2.61796756109488       -1.54156207842951
N           51.20048718033912        1.76860353352231       -0.48346130802893
C           52.62474270319225        3.04626983405996       -2.03326279735352
C           52.62128041174402        3.92852803072949       -3.22691139522610
C           52.14525179713584        3.51120332288462       -4.40946085811751
C           52.18159494605307        4.37326828850023       -5.64394379144298
N           52.39843757179669        5.78080644368483       -5.29956278048844
C           53.03285007568230        6.12607789579417       -4.13496830695506
C           53.14650877595511        5.27970006378428       -3.09608262204174
C           53.86780116850620        2.71022893688478       -1.49332391535984
C           55.13332159168355        3.09501697511884       -2.04903105524022
C           56.09606481875041        2.56727742412263       -1.25023411797538
N           54.07864211264353        1.95028397582455       -0.37353108417992
C           55.42501734717757        1.85449753831718       -0.20544705715335
C           56.07972917841597        1.17555537873573        0.83841412724230
C           55.43758619747850        0.44503219870421        1.85564052158038
C           56.11673064459095       -0.18139209919340        2.94880621269362
C           55.16800650308015       -0.78831343044563        3.70720159009007
C           53.90355119056780       -0.54655821413948        3.07351681218246
N           54.10009192135438        0.21784199615548        1.95348630363564
C           52.67230814257771       -1.01517127935709        3.53706111330863
C           52.67645581215584       -1.88531148099813        4.73925983588180
C           53.30431414701081       -3.07055504728252        4.74938273239424
C           53.33432885799645       -3.96048181707624        5.96458682056280
N           52.31339342725241       -3.56386376951436        6.93819776866344
C           51.84297623045231       -2.27692682052817        6.97122239489627
C           51.96063196970502       -1.43900026463797        5.92606054437108
C           51.43343977855967       -0.73091612945348        2.95821283121755
C           50.17902611836413       -1.26976903766022        3.39994172220814
C           49.21870178706819       -0.76433008069176        2.58447554399806
C           49.88023880318509        0.08089466298232        1.63668039158985
N           51.21917251127340        0.08325006251502        1.87776074306026
H           48.09507407403682        2.43885092772596       -1.42422454014029
H           49.96673140257739        3.69294592520205       -2.88884331609558
H           51.77519031419937        2.50246240075693       -4.55133946730871
H           52.97455196040492        4.02363101907586       -6.33171865221139
H           51.22829882353981        4.29896412312476       -6.18458569911491
H           52.57350264375904        6.37465123941243       -6.09722133054781
H           53.35985465165633        7.15981708949643       -4.08556154233700
H           53.58185621737351        5.59429275825696       -2.15828101175371
H           55.26411210262721        3.68286003445624       -2.94337118000957
H           57.16666182040279        2.64390499516750       -1.35412675910627
H           57.18181720502071       -0.14675187933323        3.11370187984205
H           55.30784080227801       -1.33971575787331        4.62278084835321
H           53.83792474314680       -3.44130453677920        3.88197367207798
H           54.33613636136513       -3.93248131852503        6.43287316199337
H           53.14088716517076       -5.00240710934117        5.67560451672085
H           52.39593511313963       -4.03183293314027        7.82913687024145
H           51.29600585078163       -2.01591077582273        7.87160274485343
H           51.53871858607829       -0.44433473515822        5.95061697827150
H           50.05439945328069       -1.95465342756714        4.22305628316257
H           48.15618389808825       -0.94654801108767        2.61041413912929
Cu          71.24434592291907        0.88996847416426        0.80841158958377
C           67.81722022497883        1.11256660825173        0.89662987615656
C           68.48655986362621        1.81762454329861       -0.12094153736781
C           67.83640152910678        2.65234120765596       -1.08535329874444
C           68.80701648837841        3.15480833022048       -1.89079778471205
C           70.05571357179691        2.61895846695375       -1.42979720043563
N           69.82793981517312        1.81416844178215       -0.34443248801192
C           71.30124007353061        2.88788088697349       -1.99951902308391
C           71.33419409520880        3.74766638378365       -3.20909871017862
C           70.74279571977564        3.37427310107268       -4.35365162735279
C           70.81168744832947        4.20581149151324       -5.60750074304451
N           71.22607541862790        5.57930293920155       -5.30976598046566
C           71.96249218521994        5.86145541722971       -4.18921663189698
C           72.02800753521011        5.02518918908026       -3.13801170804596
C           72.52427236801275        2.40642336133968       -1.52785926759551
C           73.79116587882710        2.62598971058077       -2.16458487137320
C           74.72794936826551        1.98590812182887       -1.41897247228817
N           72.70750460384853        1.63336995634953       -0.41238244158477
C           74.03909602395846        1.36854377834051       -0.32598795625671
C           74.66649601718102        0.61387547046832        0.68161935603512
C           74.00370885504989       -0.02345420987728        1.74635688120338
C           74.66633903035262       -0.72906215283672        2.80093135365040
C           73.69937484932002       -1.19580384146043        3.63190736680467
C           72.43818721727395       -0.78850364816772        3.08178273169920
N           72.65758122401063       -0.06768896090843        1.93764670711571
C           71.19048341872580       -1.07756226171846        3.63866666071527
C           71.16081992179886       -1.92635363954132        4.85593360404062
C           71.61261045873437       -3.18914125930570        4.84483943505379
C           71.60469056665725       -4.06341839421217        6.07167655863184
N           70.73221372812293       -3.51150372675120        7.11177093846291
C           70.45202178773627       -2.17062125393179        7.15088361134013
C           70.60638867488316       -1.36968812334789        6.08170519996283
C           69.96373401458426       -0.63588870671890        3.13853658398507
C           68.68263121754282       -0.99528798742704        3.67573211173944
C           67.74325164096946       -0.38956748062218        2.90547493891836
C           68.44358884721842        0.34055187287778        1.89212334014151
N           69.78463900499280        0.17703545474943        2.05058222106557
H           66.77420325002841        2.83361208679185       -1.12648157325504
H           68.69339934454307        3.83671805660247       -2.71788418194582
H           70.24515934431101        2.41651346279715       -4.45219934102963
H           71.51000403328052        3.74703471558007       -6.33266813061512
H           69.82512655027730        4.24542577875495       -6.08904838507628
H           71.42917111932971        6.13228461394006       -6.12980930842036
H           72.41834784720636        6.84641916404542       -4.18212827535886
H           72.55107439212443        5.29851782614036       -2.23266211816756
H           73.93896857331555        3.18774894386697       -3.07292227740705
H           75.79109373671490        1.92645197197188       -1.58930301543329
H           75.73524461904719       -0.83816680972281        2.89241033141654
H           73.82645919007112       -1.75502799871165        4.54461008267167
H           72.02253542135922       -3.64074778714075        3.94894318926746
H           72.63276448853587       -4.18117910318551        6.46251076466351
H           71.23766076826288       -5.06735718479452        5.81834701514412
H           70.81577447673081       -3.97679919220016        8.00396076750750
H           70.01831904507355       -1.82417599640613        8.08356166692683
H           70.33193100874406       -0.32494777089665        6.11549378797550
H           68.52600497653796       -1.63800124945086        4.52691327847876
H           66.67024245505695       -0.43130913613971        3.00393850768033
