150
 energy: -230.969713560309 gnorm: 0.000329205770 xtb: 6.5.1 (b24c23e)
Co          17.08761441637044        0.09561589048989        0.00202950807002
C           13.69990464599087        0.15221778803487       -0.00821665668674
C           14.36855261918607        1.16114147371246        0.65063726239561
C           13.71166936234509        2.24015439467072        1.32479711157533
C           14.67975328566292        3.10589935184256        1.70599710173593
C           15.92580793857563        2.55312997873572        1.26247355537318
N           15.72987086224575        1.33692357801786        0.65935936401860
C           17.13231491781266        3.23127930157095        1.33066945701059
C           17.14739813088368        4.61295047376787        1.88655350470231
C           16.94987678201026        5.70618254086688        1.03846146932810
C           16.72824503360369        5.48462571074036       -0.43401517008600
C           16.95798667012570        6.99119018045638        1.56846535039001
C           17.15722049632196        7.20187911122821        2.92876437264977
C           17.17963796190843        8.59788012196228        3.49031579255401
C           17.35491838538857        6.10588319955685        3.76281889829869
C           17.35212281158520        4.81232794970464        3.25482838027453
C           17.56407387107470        3.62998787494957        4.16223533095001
C           18.31924141637898        2.67381290346578        0.88794829929854
C           19.57571512875909        3.35875726003971        0.91806023108814
C           20.51857272079876        2.45692828402269        0.55352637388373
N           18.48781965780265        1.37202527219830        0.47437997512880
C           19.83688321300102        1.22476134040537        0.31019242685288
C           20.49476122864182        0.01953748279872        0.05329146891563
C           19.79499460471697       -1.16192034365348       -0.20208049153951
C           20.43383936845571       -2.41970585599925       -0.43143212921428
C           19.46141014398617       -3.29079924764058       -0.79179865705041
C           18.23059599819599       -2.55977166404593       -0.77975891150048
N           18.44140965602395       -1.26409317030371       -0.36488037027404
C           17.03310427717766       -3.07337267722272       -1.24554443777490
C           17.01198327343850       -4.45329312633032       -1.80533564429483
C           17.28315089131353       -4.65727557838057       -3.16185635532607
C           17.59378170537236       -3.48239573541727       -4.05041592265025
C           17.26407931318064       -5.94834989074680       -3.67425618799234
C           16.98115528890710       -7.03849574352772       -2.85612013891182
C           16.95562453331813       -8.42766727779338       -3.43429887108847
C           16.71192061044625       -6.82307573155282       -1.50937591813625
C           16.72403853707346       -5.53934532439301       -0.97491903794455
C           16.43267240675497       -5.31279832713132        0.48454619224717
C           15.85401883061265       -2.34570522311058       -1.21308030584981
C           14.59956871046191       -2.84312202316992       -1.69593269004768
C           13.65896160839485       -1.93525218808309       -1.34397206303198
C           14.34143862563812       -0.88603840721689       -0.64872901471351
N           15.69185185300828       -1.12597142194684       -0.60807236262776
H           12.61663096038487        0.17682072269527       -0.02374539553838
H           12.64477331240920        2.31282900769735        1.46462076266655
H           14.57889864420396        4.04436067976850        2.22710673833574
H           15.84046316527276        4.87010632764668       -0.59496464000033
H           17.58008283634623        4.96038465842560       -0.87120751191794
H           16.59633507241982        6.43243446999861       -0.95492928364145
H           16.80338197988383        7.84005839273255        0.91045545620158
H           16.77167589596704        8.61553267144530        4.50136119809179
H           18.20773943475639        8.96490783656726        3.53352869643671
H           16.60192089882898        9.27841469448950        2.86456090258909
H           17.51111891267128        6.26147961804443        4.82531318145984
H           18.43902086898753        3.06028206083340        3.84358127560684
H           17.71224417300346        3.95141212080399        5.19269234713067
H           16.70041977357725        2.96337972250991        4.12419283444456
H           19.70274734700303        4.39351067931956        1.19247996465106
H           21.58334401728638        2.59630921086831        0.46072409085390
H           21.49230564429852       -2.59627778005006       -0.33050684950692
H           19.55246439129357       -4.33178284304559       -1.05658977929771
H           16.77492780937329       -2.76102393719984       -4.02610037798440
H           17.74758733876531       -3.80292345039036       -5.08033757372694
H           18.49586933154636       -2.97441453521684       -3.70390640599023
H           17.47449501039161       -6.10851345827100       -4.72668345005113
H           17.82735788736869       -8.59536039942624       -4.06839157328862
H           16.94529915773167       -9.17942311124745       -2.64518612567119
H           16.06228210749995       -8.56089072899343       -4.04839828814154
H           16.49034740912020       -7.66653323846145       -0.86367443455064
H           15.55690686078039       -4.67145523823045        0.60037828093643
H           17.27606852433703       -4.81543555574700        0.96707324421848
H           16.24427356526543       -6.25662457435090        0.99520946960377
H           14.47425233398554       -3.77544463118658       -2.22277765410653
H           12.59511291746131       -1.95988972139889       -1.51926358961257
Co          27.93189176230076       -0.07039097377675       -0.06475724864297
C           31.31959490113474       -0.10413166024873       -0.11133665631230
C           30.65094946124255       -1.28830971324773       -0.33436401146543
C           31.30782905741500       -2.53366190257930       -0.59486872523916
C           30.33974494227466       -3.42229410230342       -0.91915564646492
C           29.09369480747868       -2.71634691944387       -0.85656714114285
N           29.28963284997817       -1.42118713967404       -0.44979269389089
C           27.88719869681474       -3.25289204884616       -1.27690515516746
C           27.87211973176195       -4.63474236387662       -1.83234335327050
C           28.06971344325232       -4.83645624072577       -3.20117470960228
C           28.29143107447270       -3.65715859982954       -4.11029164734210
C           28.06160014769179       -6.13063522342902       -3.70837175528519
C           27.86229206615010       -7.22442738761860       -2.87267285700441
C           27.83986711755147       -8.62053845574382       -3.43395031501782
C           27.66452630379548       -7.01100104870623       -1.51205678509030
C           27.66732413474705       -5.72589401423672       -0.98305770423955
C           27.45529666214309       -5.50094658062011        0.49026579353171
C           26.70028021367801       -2.54410516597870       -1.21048120268869
C           25.44381630336830       -3.05917190685366       -1.66301478589021
C           24.50095590625499       -2.15604705024299       -1.30170879207128
N           26.53169449463508       -1.31843865210516       -0.60763148067982
C           25.18263375715322       -1.09848971565829       -0.62418735196704
C           24.52475112000162       -0.05098509065789        0.02488259948955
C           25.22451664734637        0.97831602248352        0.65860250556129
C           24.58567736538791        2.04467256167368        1.36395139819243
C           25.55810577917181        2.92272957029553        1.70700567099300
C           26.78891391329750        2.38692616231645        1.20953628776613
N           26.57809964323715        1.16476332126652        0.61185426847444
C           27.98639543175043        3.08002734920264        1.22897631621382
C           28.00751887654504        4.46330295831190        1.78042411482546
C           27.73626384406782        5.54966134812413        0.94284783469445
C           27.42553633749402        5.31708615097122       -0.51170691931223
C           27.75534082526366        6.83601640896121        1.46698246785679
C           28.03835394506564        7.05620662197999        2.81205883095413
C           28.06388961010621        8.45888694953573        3.35664642846267
C           28.30767319670059        5.96836347962928        3.63466309031751
C           28.29555312583115        4.67203694692478        3.13152793399596
C           28.58700857835647        3.49812396388355        4.02776380990616
C           29.16547181703636        2.53249913772226        0.74857121306542
C           30.41991381792081        3.22573247562248        0.74448123900644
C           31.36052142262903        2.32696172261939        0.36989340397035
C           30.67805631137471        1.08851135755879        0.14523607788124
N           29.32764520676936        1.23348903345895        0.34070425666850
H           32.40286835498371       -0.11112942037119       -0.13958343087784
H           32.37472305786773       -2.68291282136868       -0.54425946253255
H           30.44059779634017       -4.46026513310667       -1.19280147839465
H           29.17922950751557       -3.10234506332031       -3.80095092408071
H           27.43962479437271       -2.97615343369927       -4.06284378265401
H           28.42336094917424       -3.98044413976180       -5.14236428811849
H           28.21625987983773       -6.28761606024269       -4.77086603499236
H           28.24777209097415       -9.33325798813467       -2.71659273606475
H           26.81176940517368       -8.91527049093888       -3.65692469235286
H           28.41763125625032       -8.67839401171764       -4.35660671233483
H           27.50826937140538       -7.85886327950686       -0.85310573124063
H           26.58033230494854       -4.86925376624662        0.65470221738906
H           27.30711281693859       -6.44629094799274        1.01129887631304
H           28.31892182368554       -4.99357846610970        0.92436376794884
H           25.31679142063601       -3.99580867098975       -2.18141080769227
H           23.43618993657025       -2.19235574690465       -1.46521024591827
H           23.52721420801086        2.10219767880850        1.55904307723068
H           25.46705316996160        3.85719245054156        2.23666642646398
H           28.24436265132784        4.77973955982058       -0.99365345959251
H           27.27168427704246        6.26142506873306       -1.03294212144433
H           26.52344790169188        4.71062985236014       -0.61331000413479
H           27.54485982587898        7.68022138621855        0.81848742263232
H           27.19212446338581        9.01888198629713        3.01526003319826
H           28.07428182739168        8.45499253274081        4.44651762129287
H           28.95720079873594        8.98020167748964        3.00571456406119
H           28.52931383358629        6.12993374727075        4.68452790392819
H           29.46277249402675        2.95518686640791        3.66726423952686
H           27.74363659695906        2.80513931191550        4.03163900934924
H           28.77545396212886        3.82560755083665        5.04968453563019
H           30.54522472107427        4.26323831513042        1.00976288096849
H           32.42436488279579        2.46611180852910        0.26042563260232
C           21.90126146599415       -0.00587258428945        0.04918227614021
C           23.11825112752768       -0.02982153075073        0.03952822350157
