274
 energy: -456.154520877234 gnorm: 0.000632916221 xtb: 6.5.1 (b24c23e)
Co          54.21192129817479        0.05981438512858       -0.05687002148079
C           50.85020244423731        0.17519227214725       -0.18302200600923
C           51.49095701417160        0.82046555735102        0.85420360997816
C           50.82041634352208        1.49992952420718        1.91976885722073
C           51.77350804860123        2.16265097626204        2.61851359792400
C           53.02257063665869        1.90559402356950        1.96356753523671
N           52.84661390973255        1.02005196124354        0.93174850527363
C           54.20972927604993        2.57614160403812        2.24024241921681
C           54.21195560999068        3.66485682038354        3.23852750388322
C           53.33745920617119        4.74960077682821        3.11877314431442
C           53.34789394586263        5.77277667612089        4.04694415491231
C           54.23190708408755        5.74007363962838        5.13287472138530
N           54.16623320531829        6.76029758329299        6.06908894694708
C           55.32492230462655        7.05291986583833        6.90202169037551
C           55.09818467439727        4.65076093556805        5.26630938088715
C           55.08981817384539        3.63646124516355        4.32466720715255
C           55.39147339254432        2.25613590348355        1.58472749502814
C           56.62498644835023        2.96542724801649        1.74414994096901
C           57.57669100154172        2.24740127814297        1.09818544823056
N           55.57699259448277        1.15278720453639        0.78393412213788
C           56.92083395246492        1.10733231514207        0.54171423697617
C           57.59572312819068        0.01557741624693       -0.01348633474117
C           56.90804064052785       -1.07378552528279       -0.55876270324378
C           57.54632964990722       -2.25084201487401       -1.05495073859478
C           56.58723809871823       -2.97894803028148       -1.67844491460226
C           55.36987451539959       -2.23147837111428       -1.57861685277213
N           55.56818928015054       -1.09899324005165       -0.82115014657954
C           54.20372547941628       -2.53096516597252       -2.26959386948535
C           54.19189043760759       -3.66357277922920       -3.21768888060498
C           55.11562445354265       -3.73466610244015       -4.26294471131435
C           55.10504282589222       -4.79019799960892       -5.15818619394779
C           54.17092938717254       -5.82095685053238       -5.01785181064544
N           54.08563335155372       -6.87745249634041       -5.91134950899119
C           55.26032092416069       -7.27419627675122       -6.67594127228451
C           53.23924884567385       -5.75263225585477       -3.97422289647088
C           53.24894196137985       -4.68887711061376       -3.09291951879936
C           53.04432819792994       -1.78097844881038       -2.09504720748369
C           51.83255711417494       -1.97595068957195       -2.83552101840447
C           50.88503266200161       -1.20606058674907       -2.24789641380799
C           51.52124539959516       -0.53523544752795       -1.15592132498599
N           52.85929056140055       -0.84089994770308       -1.11558807895245
H           49.76826143469479        0.21822550992575       -0.22836530419916
H           49.75661095268192        1.46472999881635        2.09392798587918
H           51.65286230929846        2.77465861206377        3.49772381362084
H           52.66255428708478        4.80107319940778        2.27141820667649
H           52.67033810618739        6.61289912105071        3.93618529862343
H           53.73059366081630        7.59917481615427        5.70517379190511
H           56.22745031498932        7.20205846546428        6.29834130091768
H           55.49500864303252        6.23771102211096        7.60640822150093
H           55.11368909448530        7.96192226711476        7.46521050391736
H           55.77917189253515        4.58744258881297        6.10619373648178
H           55.75945499066722        2.79189744676918        4.44612330092281
H           56.73810337141051        3.89416716054226        2.27951812074139
H           58.63134549783992        2.45253464175356        1.00761702162920
H           58.59420535842563       -2.47569386371549       -0.93645825432771
H           56.68637452565405       -3.93543984756597       -2.16552500482367
H           55.83715887065581       -2.93516866092713       -4.39181777424659
H           55.82389130014689       -4.80403092438017       -5.96827220629693
H           53.58507810912711       -7.67222127452304       -5.53225709804704
H           55.50993588291662       -6.50294446010346       -7.40568162560907
H           55.02005919633228       -8.19399296888847       -7.20918838072768
H           56.12475059265505       -7.44789324782753       -6.02488949294521
H           52.50778974018196       -6.54574474097459       -3.85977682420914
H           52.53381303028919       -4.66047996649963       -2.27807809590693
H           51.73199738118618       -2.61971837545004       -3.69437135838140
H           49.84446291393653       -1.09763926972468       -2.50998950175415
Co          94.33124771270427        0.03413926188087       -0.02648817558789
C           97.69302716769282        0.12976942237069       -0.17298596018730
C           97.05083522315296       -1.02290762082739       -0.57478269393520
C           97.71999308517363       -2.21040691415569       -1.00945056807657
C           96.76581351637884       -3.03426183489163       -1.50600154296593
C           95.51728547646671       -2.33877177902398       -1.39344442044061
N           95.69475333776292       -1.14072224197526       -0.75110810414968
C           94.32829579252673       -2.75448479671433       -1.98424949585304
C           94.32562210336137       -3.96219859731502       -2.83487005119436
C           95.19438463942193       -4.07228216100214       -3.92520778898530
C           95.18319830340012       -5.19638187002744       -4.72821064735882
C           94.30427216443334       -6.25359125946532       -4.46085390589552
N           94.36834095259644       -7.38430963989244       -5.26056402684200
C           93.21088551373593       -8.26279711688301       -5.36327843117192
C           93.44473263401837       -6.15641280369474       -3.36245932622881
C           93.45368534715682       -5.02099306539181       -2.57097990399314
C           93.14569257039885       -2.04893104814773       -1.80564597580821
C           91.90835553764556       -2.36273173854160       -2.45424351016441
C           90.95780536099417       -1.58123629935401       -1.88482056615773
N           92.96304318653901       -1.02938020054909       -0.89981554656560
C           91.61829962224007       -0.78847270979919       -0.89744668608758
C           90.94770304476067       -0.00943019452238        0.05087064124215
C           91.63969391781210        0.76711775861901        0.98628335598822
C           91.00618883307239        1.51311188380307        2.02611377661430
C           91.96627127927896        2.28912437445703        2.58718387989721
C           93.17946775254870        2.02778950820029        1.87271018738403
N           92.97829480076592        1.03361657632709        0.94182747327677
C           94.34427640609127        2.77193951956043        2.00172351860065
C           94.35627205191162        3.95307812403076        2.88865454087039
C           93.42879161793168        4.98415561351082        2.72252534943248
C           93.43946822464544        6.09728444932416        3.54504384034710
C           94.37751343295619        6.19934065673289        4.57672132410835
N           94.46367199198650        7.31145316268602        5.39991516248403
C           93.28841911703596        8.14474494620344        5.61503666470400
C           95.31239510273772        5.17011057830766        4.74568412120866
C           95.30254676001583        4.06866863605622        3.91194110751842
C           95.50174346801323        2.43372719356800        1.30686449366999
C           96.71374194937155        3.19884683244953        1.32782437286455
C           97.66053597642899        2.45166146552124        0.71050243046089
C           97.02324715232209        1.23691250277355        0.30381054551114
N           95.68562172632036        1.26709441968044        0.61200875247628
H           98.77495342539126        0.16362082882500       -0.22587143755629
H           98.78378359621617       -2.37365070554689       -0.93904601751862
H           96.88524136121707       -4.02432188976345       -1.91545533332354
H           95.86530334702675       -3.25287385129270       -4.15887614229761
H           95.85610593639487       -5.26398372366419       -5.57661684912086
H           94.79682932080182       -7.20389257934696       -6.16046815414163
H           92.30511907498294       -7.70598202244925       -5.62934814963454
H           93.04885669714247       -8.78050515669700       -4.41704202747500
H           93.41817312367515       -9.00392913604647       -6.13518383758012
H           92.76847397786587       -6.96642029669550       -3.11807727694874
H           92.78921298440754       -4.96314355440302       -1.71565960950756
H           91.79196950810717       -3.08654067879433       -3.24451950073999
H           89.90127068853768       -1.54152953390220       -2.09638099179121
H           89.96047063752390        1.44409700438540        2.27979587403127
H           91.87053694274263        2.97927028486033        3.40967958291534
H           92.70409177387056        4.92441601810704        1.91774559956337
H           92.71763248832345        6.88692433609875        3.37593719426994
H           94.96752695877177        7.12550113563573        6.25868562984967
H           93.03292079325482        8.67561033130950        4.69714015210363
H           93.53132442032813        8.87696895199700        6.38508011507715
H           92.42683449952165        7.54992654799116        5.93934916700700
H           96.04662762286343        5.24220347974949        5.54120926223298
H           96.02032945265003        3.27084573384415        4.06829668411377
H           96.81511352501074        4.18107473712158        1.76038606139250
H           98.70106105440114        2.68192544353182        0.54460671928324
C           60.21986034439705        0.00367066412753       -0.01417578696503
C           58.99660160026114        0.00654158846976       -0.01190598790334
C           61.56703972985895        0.00218440425125       -0.01718140199816
C           62.79041712809547        0.00129192972428       -0.02436711709711
C           73.60160720651730        0.01423803213426       -0.01689983272084
C           72.37805017301034        0.01592104432158       -0.02774491991800
C           74.94842761433408        0.01423377864824       -0.00918653856692
C           76.17205876700652        0.01398754172427       -0.00647152378402
C           86.97657764507996       -0.00335831253824        0.07425178547214
C           85.75315146199905        0.00132212255319        0.06502624251606
C           88.32366350750708       -0.01042693578595        0.07500085062943
C           89.54695757949190       -0.01219489676844        0.06812730815796
Co          67.58446646712407        0.02222535420189       -0.03715704050848
C           64.19099415514826        0.00459087590667       -0.02534454312612
C           64.87454666965844       -1.11990202593991       -0.49963612803601
C           64.21818161791583       -2.29105403516179       -0.98534511150027
C           65.17287332682021       -3.05511133009994       -1.57070534382039
C           66.41048188397508       -2.35031341319609       -1.42983421340756
N           66.21967579074450       -1.18313220852817       -0.72754838768803
C           67.58521850475583       -2.69971933013512       -2.08422328239577
C           67.58274689504627       -3.87374597606068       -2.98688874940944
C           67.36199328248445       -5.15981710234317       -2.48815346414215
C           67.36102690592594       -6.25312327401529       -3.33378263789237
C           67.56664253264972       -6.08936011897931       -4.70929933426650
N           67.60203757488502       -7.22017892087801       -5.51121158551893
C           67.32024790791924       -7.10397974810941       -6.93567249300533
C           67.79412420465873       -4.80454270413929       -5.21109701204325
C           67.80345462636662       -3.71594290112907       -4.35573998481628
C           68.76201449930642       -1.98250466714237       -1.91834269077770
C           70.00598607119115       -2.33410935625852       -2.53380948011926
C           70.96252583724790       -1.57668989662777       -1.94393854849185
N           68.95203058535505       -0.98203964228232       -0.99221319359593
C           70.29988696580830       -0.76766522304840       -0.97135656143380
C           70.97765615839921        0.02546539458821       -0.03946362085962
C           70.29639510350891        0.83034022618742        0.87986538835019
C           70.94850631435227        1.61362477126101        1.87952983927000
C           69.99087281995281        2.38337650553203        2.45364541385910
C           68.76136780907579        2.07551944369590        1.78921467835794
N           68.95279604443246        1.07124866408303        0.86894432506553
C           67.57714748509946        2.78019886963477        1.96593659528166
C           67.56870026818919        3.96524802141041        2.84708548274857
C           66.68258971604460        4.04641070246970        3.92396876447042
C           66.67359096636152        5.14658117954891        4.76318751831005
C           67.55658282594609        6.20754536069763        4.53939958788640
N           67.55288585464046        7.35677700985311        5.31316297536420
C           67.03984369898627        7.31216923471637        6.67558738061139
C           68.43620999774087        6.13846785542475        3.45132337762486
C           68.44619215957923        5.03132264200690        2.62529182648281
C           66.39707786503190        2.39389808689723        1.34137348545741
C           65.16448758857304        3.11530561826199        1.43018760455972
C           64.21018195803572        2.32722644155636        0.87551178841337
C           64.86741355625725        1.13778392351050        0.43865950469207
N           66.21214961652828        1.21069845386751        0.66537532808128
H           63.15965359217496       -2.47893952465720       -0.90369190985585
H           65.05347550238318       -4.00002572507267       -2.07514159998929
H           67.21020832336698       -5.30246983387000       -1.42389565661079
H           67.20046855170743       -7.24849385532297       -2.93317566507934
H           67.13552857292966       -8.01410416498381       -5.08925092698691
H           66.37044333992525       -6.58808784586349       -7.11759557047806
H           68.12468408028806       -6.56091185764164       -7.43320541408056
H           67.26944109392113       -8.11005130013522       -7.35200516279092
H           67.96518056960242       -4.64730315319492       -6.26892183971531
H           67.96453112191865       -2.72192468968185       -4.75860226408355
H           70.12661148908624       -3.08546657378426       -3.29698523810620
H           72.02508706138492       -1.56863976483634       -2.12640242583239
H           72.00313441161904        1.57219617060914        2.09970900288670
H           70.09876582054903        3.09509899646751        3.25587945803604
H           66.00695872042407        3.22108554150624        4.12078805541873
H           65.97712980711189        5.17366875180521        5.59216982965507
H           68.41434541894131        7.88417495813613        5.23986218431229
H           67.51439216604994        6.51462379079387        7.25860453102380
H           67.24690660979512        8.27380572610921        7.14506051377957
H           65.96059064092222        7.15473865277861        6.66391400967319
H           69.11285493703636        6.96462439884949        3.25985542585802
H           69.12511913138458        4.99764812268114        1.78031469307446
H           65.05247826071043        4.09719207336772        1.86032305501150
H           63.15440519392468        2.51859978321824        0.77014486796568
Co          80.96265978620025        0.02268263695060        0.00954764787724
C           77.57221434860887        0.01967118149388       -0.00693263481780
C           78.25836054636463       -1.08528772171813       -0.52258494171316
C           77.61490675596647       -2.26368117540009       -1.00771353407080
C           78.57467716862338       -3.00843056072714       -1.61115521081349
C           79.79732569762902       -2.27278698392424       -1.50164465768076
N           79.60059605533291       -1.12497939268992       -0.77027056168008
C           80.97804566109140       -2.60668458233969       -2.15439148763517
C           80.98825776246647       -3.75284510380255       -3.08493523766467
C           81.89502911908657       -4.80401667380579       -2.91337735484654
C           81.90509275265703       -5.87822001488598       -3.78139881252134
C           81.01620863943263       -5.92829063785212       -4.86310204889874
N           81.03499170731813       -7.04637524152246       -5.68032273651295
C           80.50283179769710       -6.96741403694139       -7.03366226929648
C           80.10362958345780       -4.88292970613424       -5.03650327280117
C           80.09279117217561       -3.81606573960200       -4.15518790575466
C           82.15313908336310       -1.89320233880620       -1.94653206579749
C           83.38573793109887       -2.14846165963116       -2.62733193027359
C           84.33862160367656       -1.41604811345457       -1.99824842557962
N           82.33633550412459       -0.94695466086251       -0.96575625921363
C           83.68054123204217       -0.70565393478730       -0.94967035197179
C           84.35317600118773        0.01090662082001        0.04648705187971
C           83.66168530599658        0.74581885558046        1.01571579837094
C           84.29793189592911        1.46637241288796        2.07069201056393
C           83.33984863814595        2.23474441524389        2.64741628634804
C           82.12553398265689        1.98475583096888        1.93320411506913
N           82.32303549273006        1.01566345481204        0.97902346618589
C           80.95292983835155        2.71520672095298        2.09433259514257
C           80.95760595446204        3.88917682660243        2.98972105529386
C           80.04749812590502        3.99355054741189        4.04420362971599
C           80.05220003912298        5.08974099188016        4.88894530543484
C           80.97426713056501        6.12278746552481        4.69402145199341
N           80.98700854308917        7.26878075498721        5.47208335830948
C           80.42871656808570        7.24047118380287        6.81686308840123
C           81.88083811836222        6.02934931289947        3.63004169112323
C           81.87634389164833        4.92651158137157        2.79863928234824
C           79.77991327204190        2.36429258484318        1.43773360481401
C           78.55101249749785        3.09240317854800        1.52979425512353
C           77.59524855032193        2.31972012319343        0.95619344452896
C           78.24857985370349        1.13605276770817        0.49766781245906
N           79.59162729175588        1.19692988879737        0.73391116410579
H           76.56366984829170       -2.47722030558986       -0.89914796305573
H           78.47239139551804       -3.97020954689902       -2.08678185335235
H           82.58131575510603       -4.78576324250985       -2.07388212176582
H           82.60470570253327       -6.69317370194939       -3.62832379529879
H           81.91035640038018       -7.55369487579360       -5.63608369354343
H           79.42088465646195       -6.83339559091381       -7.00292985960771
H           80.95289000925223       -6.14122829972041       -7.59585682866230
H           80.72345131887828       -7.90843728243550       -7.53750637296419
H           79.39937066400644       -4.89625967102036       -5.85919298805097
H           79.39369572370055       -3.00210311236604       -4.31354223864720
H           83.49947838312264       -2.80407872037968       -3.47526062960410
H           85.39416887260262       -1.35774581353157       -2.21007694807706
H           85.34421707198446        1.39197981335934        2.32021067710493
H           83.43788668771874        2.90929617274320        3.48244770001574
H           79.34141418293319        3.18930333052474        4.22015302357752
H           79.33576605214040        5.13546788428212        5.69989721634480
H           81.86743273205083        7.76708627152382        5.42671699048376
H           80.85216897826517        6.42318567983400        7.41174090200369
H           80.65820969379534        8.19183429299100        7.29676893904543
H           79.34499411582163        7.12589436611953        6.76950754950111
H           82.58938243841159        6.83348736452833        3.46154523611010
H           82.57670469915602        4.87402038268901        1.97230395068904
H           78.44151350304719        4.06700784542691        1.97685353436417
H           76.54111292767693        2.51905448101406        0.84893326825157
