232
 energy: -417.380914719901 gnorm: 0.000774212685 xtb: 6.5.1 (b24c23e)
Co          33.34978821407813       -0.01791429039344       -0.02314646231904
C           29.97905835116660       -0.05585031202371       -0.06583211084667
C           30.64995916094632       -1.25330150751973       -0.19244875119797
C           30.00023912888363       -2.51998191642821       -0.34193865033089
C           30.96027894070535       -3.46603311396659       -0.21845717590354
C           32.19794586180999       -2.77601154405477        0.00125409262658
N           32.00313636480397       -1.41869419488041       -0.03457230017893
C           33.37924142356248       -3.39721030596782        0.38351390086857
C           33.39070496838914       -4.86836932324315        0.56048048777841
C           33.58088856893807       -5.44527406555549        1.81487062589840
C           33.58109382995661       -6.82678703760066        1.92850991471160
N           33.41166025157030       -7.63893942109888        0.89021911536938
C           33.23207143455309       -7.09592916369359       -0.30940569964629
C           33.21143706287854       -5.72649876828571       -0.52313399224993
C           34.54764850352134       -2.68451495733464        0.60318580405449
C           35.79395789382153       -3.28056858980755        0.98116892797607
C           36.73908292234931       -2.31688394829340        0.86840140785865
N           34.72494661477506       -1.35122764381130        0.30854376759921
C           36.07007133804529       -1.13742869750719        0.41803263215621
C           36.73903298554666        0.01297371474020       -0.00746815875669
C           36.05062794961101        1.15473087047732       -0.42453095909726
C           36.69565064125221        2.34297582652145       -0.88623302450451
C           35.73461926748323        3.29293945034300       -0.98549087984750
C           34.50582937220647        2.68184912679949       -0.57680873961789
N           34.70346124901423        1.34890428993052       -0.29859382935923
C           33.31668805833051        3.36949071077789       -0.38461117310175
C           33.30584812828565        4.84108960804577       -0.53503047638752
C           32.48047325604744        5.47055258406761       -1.46630210294410
C           32.50816080405716        6.85241640558568       -1.56845273089005
N           33.28639715612243        7.61945592338547       -0.81172374323703
C           34.07490791810793        7.02772051420909        0.07974515182536
C           34.12210230073619        5.65336629063052        0.25170232504005
C           32.13632226274537        2.71377362663590       -0.06000902844758
C           30.88584576452339        3.37210233502352        0.18211219455487
C           29.94260102871833        2.40403765515049        0.26015311747690
C           30.61960188229223        1.15560045605934        0.08224970644124
N           31.97144139740485        1.35227736077135       -0.04912311201642
H           28.89562014071026       -0.06848701979341       -0.07592229268458
H           28.94114053803667       -2.64809635541993       -0.49929828215122
H           30.85080511951395       -4.53791361137900       -0.24857981501062
H           33.71176893484873       -4.82156106813941        2.69103909501144
H           33.72315167569873       -7.30059053655454        2.89542829794528
H           33.09876873148119       -7.78546133057873       -1.13789513968918
H           33.07273130111921       -5.32765732529058       -1.52091190677992
H           35.92161563086542       -4.31083246892403        1.27066503529516
H           37.79939045445420       -2.38709346854496        1.05026260264005
H           37.75054284524818        2.42574557745833       -1.09263481078291
H           35.83695474060823        4.31730527128830       -1.30467422678211
H           31.83862800158960        4.88493940813449       -2.11360129414998
H           31.87783503710133        7.36483226068115       -2.28935414410337
H           34.69717891676103        7.68085882555249        0.68455806600721
H           34.77212797266222        5.21545684893808        0.99983089227796
H           30.75965932300149        4.43867064711964        0.27380066367893
H           28.88064521285603        2.50586309509785        0.41744401264905
Co          81.20061144573697        0.03384164301148       -0.02502169309019
C           84.57658593040878        0.04563928166251       -0.07858143419078
C           83.91036431664844        1.15767456326962       -0.54612784614132
C           84.56928397567424        2.32351162741518       -1.05162923651133
C           83.61336872798331        3.26614180651476       -1.22204181750657
C           82.36951890682691        2.67209915697722       -0.82711150050212
N           82.55666432454881        1.36488302262225       -0.45634582773746
C           81.18386127883043        3.37876781191268       -0.68042014139037
C           81.17749644923639        4.83431937397976       -0.95902804088428
C           80.96450247146511        5.76375744688454        0.05753617792628
C           80.96771917206377        7.11473916050392       -0.25264648041361
N           81.16116229719904        7.57435622296508       -1.48455295292035
C           81.36302104025650        6.69376769977236       -2.45931171749619
C           81.38254527122152        5.32399639645227       -2.24769651188489
C           80.00489458029179        2.76722609933693       -0.28505030661415
C           78.75503572231979        3.45376246417080       -0.15073858771301
C           77.80550134057614        2.50528442702888        0.02986621013411
N           79.82453161928655        1.40944204532080       -0.14295024053721
C           78.47629312386718        1.24403240374246        0.00325724419325
C           77.80471595541803        0.01890315923192       -0.00261019619323
C           78.48919183872283       -1.19895828871564       -0.00215078275053
C           77.83506181301271       -2.46845922023961       -0.03904020593892
C           78.79485433440907       -3.40511741351218        0.15191826229353
C           80.03150649367375       -2.70164294555066        0.31354480779929
N           79.83838791104770       -1.34803950081903        0.15605283430331
C           81.22607272923801       -3.30416657830028        0.67715260881195
C           81.23662480941857       -4.75311563025496        0.97769966871057
C           82.02358677387686       -5.63962354272966        0.24330478931184
C           81.99638069504479       -6.98855259734706        0.56009272675973
N           81.25452434545450       -7.48673138250438        1.54399372509881
C           80.50374634310339       -6.64808977724868        2.25082862211413
C           80.45873597754557       -5.28476284404327        2.00564286538081
C           82.41362435639863       -2.58963648477982        0.75981111677817
C           83.66686886885218       -3.15621601196573        1.16481598098555
C           84.61221508092609       -2.21335912311352        0.94205329644646
C           83.93355689315251       -1.06845572382650        0.41562127840953
N           82.57971684841579       -1.28740072481059        0.36333850190831
H           85.66007933736515        0.05066507261619       -0.09351621894259
H           85.63076853765983        2.39708783807217       -1.22682472106618
H           83.72868305285797        4.28199191996116       -1.56339779611637
H           80.81255646204370        5.43427125390041        1.07839033601326
H           80.80784064615690        7.85899466411041        0.52207400924482
H           81.51555833086113        7.10017788824464       -3.45485432509521
H           81.54001528004939        4.64186640432092       -3.07462490978851
H           78.62927701321664        4.52237396341976       -0.21213979744692
H           76.74202868531187        2.63018327940306        0.15476403110693
H           76.77600681356722       -2.60691671974672       -0.18549964599706
H           78.68717137661342       -4.47702008192527        0.18240139082957
H           82.63516434502969       -5.27990102542646       -0.57554194950774
H           82.59632012492493       -7.69910020108946       -0.00098478300439
H           79.91098762336438       -7.08470369275025        3.04929651630411
H           79.83981991960309       -4.63699913310907        2.61500860008268
H           83.79263940671443       -4.14989265941194        1.56315085113917
H           85.67637965051705       -2.27010537165561        1.10699465846342
C           41.93843973544103        0.04041214700356       -0.02915772045853
C           40.70953329553527        0.03539242294429       -0.02727562430961
C           39.36609517506191        0.02975690331864       -0.02131165891964
C           38.14197213443681        0.02251058798822       -0.01441754108000
C           43.28155384687048        0.04121836719794       -0.03533227098066
C           44.50602822163358        0.03737624552691       -0.03895000708464
C           57.89125855422425        0.03558079035756       -0.00044825101434
C           56.66170071301209        0.03598324674048       -0.00382198967611
C           55.31987095730045        0.03240348975895       -0.01023441857210
C           54.09495071925246        0.02779274008445       -0.01706029693743
C           59.23308873842410        0.03411258217079        0.00041932019918
C           60.45806788904851        0.03083941030868       -0.00114883166772
C           73.83457818696529       -0.00223311546321       -0.01338149768674
C           72.60537739442780       -0.00603824126124       -0.01452298483490
C           71.26256199604768       -0.00834952244055       -0.01808333041716
C           70.03777443848476       -0.00937462549733       -0.01843214599718
C           75.17768809266447        0.00296375662001       -0.00850293178739
C           76.40210341294024        0.01143396063763       -0.00660363791315
Co          49.30117348001023        0.02869364958246       -0.03371006216019
C           45.90768498305334        0.03177159669178       -0.04117983193418
C           46.58689416182277       -0.62491051020861        0.98960363064157
C           45.93433635500781       -1.26546024725335        2.08666588904233
C           46.88780432162128       -1.96343201896909        2.75122343392428
C           48.11683117052938       -1.75267277008953        2.04878994751868
N           47.92977780313056       -0.87513189265748        1.00678747807215
C           49.29423404117621       -2.44287853201919        2.30396672836133
C           49.29346119728625       -3.51325433515391        3.32490114300151
C           48.45045363215480       -4.61870620520133        3.21573745727700
C           48.49351488524108       -5.59996129481550        4.19363196329691
N           49.30171459627249       -5.53790657531423        5.24685678295505
C           50.10469818446580       -4.48485393023490        5.36137391331466
C           50.13917102143590       -3.45694978667001        4.43242203647346
C           50.47439016424765       -2.15615994951247        1.63290899344995
C           51.70411839391443       -2.86435620544829        1.82223458025136
C           52.66287332301665       -2.16111332271332        1.17156280689587
N           50.66657520194551       -1.07395018121429        0.80545160828714
C           52.01235792159591       -1.03687503203115        0.57744351791629
C           52.69468342759075        0.02353061073152       -0.02731823376415
C           52.01492328127485        1.07739188902932       -0.64631787133096
C           52.66785243353245        2.19782083132636       -1.24492485941670
C           51.71512082491878        2.88606295972409       -1.92030589249953
C           50.48608405418788        2.17541304687227       -1.73693167719984
N           50.67286331416935        1.10251456654691       -0.89702726204808
C           49.30976434047979        2.45506130725236       -2.41830759100226
C           49.31775641568444        3.51042100750759       -3.45469270124929
C           50.16673955319918        3.43206649387840       -4.55830803876052
C           50.13931032862668        4.44410906678086       -5.50463011542576
N           49.34053208212337        5.50220221126846       -5.41024683826907
C           48.53074006117641        5.58640943320627       -4.35975655419491
C           48.48076441241797        4.62221789019280       -3.36541942062791
C           48.12804007276107        1.77610525667174       -2.15443095287501
C           46.89835138599314        1.99313288292965       -2.85423591929339
C           45.93955489595407        1.31552670902206       -2.17681569798498
C           46.58975551998363        0.67784986162769       -1.07654665582088
N           47.93601634715179        0.90852303479872       -1.10456321997763
H           44.88069176131053       -1.18897648180928        2.30167830562233
H           46.77888844379594       -2.57011481056585        3.63534915737375
H           47.78414994676189       -4.71759591500143        2.36718116314808
H           47.85191141097854       -6.47377820070539        4.12720984498461
H           50.75038746049788       -4.46122915069913        6.23428100593662
H           50.80222159039168       -2.61151785008886        4.57271554908771
H           51.81001537573017       -3.77735221987782        2.38505146883024
H           53.71844948876149       -2.36739409954966        1.09772981847109
H           53.72109643733881        2.41094695766247       -1.15843117945933
H           51.82445542646948        3.79169577899966       -2.49430919370988
H           50.82672031744683        2.58173055874573       -4.68197188060610
H           50.78733377907546        4.40291243230727       -6.37515412662561
H           47.89292579095365        6.46402733215801       -4.30957151512346
H           47.81345365434910        4.73937150087948       -2.51991847296264
H           46.79226506912903        2.59169589775067       -3.74416731931009
H           44.88396109730179        1.25010294332995       -2.38567276830177
Co          65.24763503552154        0.01411725309321       -0.00591555496290
C           61.85814555860336        0.02229492610315       -0.00653274944048
C           62.54029965527169       -0.63918471655146        1.02022606871443
C           61.89454887765124       -1.27726383392384        2.12273915392820
C           62.84935692247768       -1.98596033047051        2.77434894477999
C           64.07215166750217       -1.78575795426062        2.05744792962495
N           63.88043545909391       -0.90031682934667        1.02279250738942
C           65.24330650281044       -2.49674250556463        2.28191818196986
C           65.24346968378538       -3.57860910906530        3.28987419864561
C           64.36529065814744       -4.65791967915185        3.19565771282447
C           64.40313482999676       -5.64594922413706        4.16671990489688
N           65.23935552884350       -5.61510468025640        5.19936419917405
C           66.07819966557429       -4.58885723112170        5.29794767832270
C           66.12000666248544       -3.55650965706718        4.37450746346091
C           66.41504849741882       -2.21789061847779        1.59069447852384
C           67.63648800373851       -2.94997199241579        1.73526886488773
C           68.59375677345099       -2.24417501747115        1.08418316909116
N           66.60849123632383       -1.11892190327406        0.78691655919939
C           67.95110706412304       -1.09256218807657        0.53609788467533
C           68.63682304926091       -0.00792931462641       -0.02073821836728
C           67.95676004818749        1.07802023249150       -0.58212026702517
C           68.60423863103362        2.22382797741596       -1.13658525007325
C           67.65172245938672        2.92476664051450       -1.80015718032970
C           66.42775018089971        2.19778257140948       -1.65290209594201
N           66.61606949672367        1.10285046752010       -0.84345505059002
C           65.25645820568073        2.47730521171608       -2.34509110162742
C           65.26409153898830        3.54776097450817       -3.36523537222305
C           66.13382054043461        3.50119698399444       -4.45449993068921
C           66.09954983787830        4.52282931634201       -5.39021279532240
N           65.27520926941243        5.56139074555112       -5.29856542689398
C           64.44654828243665        5.61611499890586       -4.26081989741598
C           64.40148935109414        4.64008216225673       -3.27797308160523
C           64.07924371410822        1.78223976223862       -2.10552016013695
C           62.85217989763856        1.99611076271576       -2.81142955377206
C           61.89260708913012        1.31146436142269       -2.14185580139306
C           62.53999764441033        0.67101687171833       -1.04144143647896
N           63.88503823517914        0.90470916099178       -1.06389406606274
H           60.84420408762536       -1.19189884182442        2.35042489718680
H           62.74439994824345       -2.59356355014694        3.65830323222335
H           63.67505770069479       -4.73159772400928        2.36370782121811
H           63.73285818303946       -6.49879240402940        4.11228957697674
H           66.74581018683266       -4.59055782468406        6.15443592501813
H           66.81148316104181       -2.73240380414329        4.50299830333717
H           67.73872551289411       -3.87946205181835        2.27115037513254
H           69.64441659054744       -2.46429703678210        0.98485939374477
H           69.65460288510131        2.44355422044800       -1.03345486168251
H           67.75835318905315        3.84899184851561       -2.34430813951294
H           66.81430573944473        2.66698719173526       -4.57667765186633
H           66.76242437629975        4.50560520526960       -6.25039215424457
H           63.78796986478776        6.47831045489580       -4.21234271704916
H           63.71755693367939        4.73270024876919       -2.44272176294860
H           62.74776385322436        2.59787963159229       -3.69941579821871
H           60.83828338955578        1.24309038536271       -2.35631617011328
