183
 energy: -314.769011932950 gnorm: 0.000478942561 xtb: 6.5.1 (b24c23e)
Ni          34.26375030235582        0.03075131013517        0.02680133884030
C           30.87885531722469        0.08041968070032        0.10631302127320
C           31.52816275675068        1.08918230590412       -0.57636430389680
C           30.85829340606983        2.12824717247336       -1.29635001385773
C           31.81483107785510        2.99305796039059       -1.71116677116950
C           33.06740883505716        2.49090871797051       -1.22822657444546
N           32.88540129655145        1.29502794565813       -0.57933401955966
C           34.27447611567803        3.17403141031262       -1.32350591952392
C           34.28995099497936        4.53084234783081       -1.91406118286362
C           35.08669045787558        4.80988919526435       -3.02766889673242
C           35.10987498440420        6.07590291250847       -3.58451651752836
C           34.34438844463301        7.10201737378953       -3.02452115674970
N           34.33784675400833        8.36097800427364       -3.59998002119742
C           33.54129400547113        6.83029229960733       -1.91388190601066
C           33.51566645956095        5.55844519995466       -1.36974410297638
C           35.47251287131756        2.62842331401270       -0.87617562973869
C           36.71821929758318        3.33237331496882       -0.86372531913275
C           37.66864245842577        2.44051663118756       -0.49085570564911
N           35.65345984138112        1.32970476454335       -0.45800112739240
C           37.00333616775986        1.19656523352499       -0.27345015826003
C           37.66972084268222       -0.00619558063270       -0.02097315107679
C           36.98607231968757       -1.19684161267369        0.24247720026402
C           37.63050376801956       -2.45663615033627        0.42918311929924
C           36.67018749172130       -3.33361722098714        0.81244626938753
C           35.44081368502221       -2.60327105483804        0.86750568258256
N           35.63894962504739       -1.30359401080914        0.45971067074773
C           34.24563746974802       -3.12356899835607        1.35117781002722
C           34.24369401277737       -4.48781048727097        1.92420102259914
C           35.07731303366773       -4.80784176113369        2.99916292665877
C           35.08072988781731       -6.08088133348468        3.54028956644404
C           34.25628035579139       -7.07304038039877        3.00325837846678
N           34.22977832274849       -8.33770879449547        3.56532122639462
C           33.41611884158245       -6.76023212896412        1.93146220804103
C           33.41151476310516       -5.48166703079076        1.40282975667920
C           33.05578558069522       -2.40488340070502        1.31593303195989
C           31.81340174770492       -2.87329502452747        1.85585813743529
C           30.86521988899124       -1.97452312622839        1.49805672861280
C           31.53047485864342       -0.95011261607217        0.75324865398182
N           32.87932526435326       -1.19754699416101        0.68723600057628
H           29.79549579772130        0.09697480575948        0.13357980200532
H           29.79245121926352        2.17317195799078       -1.45522590327422
H           31.69504410826163        3.89213307810582       -2.29373376819024
H           35.67833865236211        4.01681918527785       -3.47179435583901
H           35.72370216848810        6.27718830756687       -4.45570772211906
H           35.15200107064953        8.58038378137309       -4.15160386337094
H           34.04891669764467        9.10699146420120       -2.98746542977868
H           32.94257587944833        7.62202321490411       -1.47685769705213
H           32.90542710948024        5.36117120257255       -0.49513523943090
H           36.83996813397552        4.37667541089661       -1.10107904880015
H           38.72720659001122        2.60016203909133       -0.36683008195112
H           38.68263796585921       -2.63594184197555        0.27842753040821
H           36.77531198609885       -4.38358091365603        1.03221314711602
H           35.71375150899240       -4.04091401407114        3.42695454099456
H           35.72412806811960       -6.31374568984988        4.38177926111954
H           35.05668560070202       -8.59066594059657        4.08244179212923
H           33.89086602652961       -9.06648181068410        2.95780133033965
H           32.77146875173921       -7.52538093169850        1.51275207331926
H           32.77092225086160       -5.25248475011744        0.55816618534015
H           31.69460208946199       -3.77383270436816        2.43636593455378
H           29.80779787595371       -1.98774293692401        1.71002484033888
Ni          55.97166714506482       -0.03191071056455        0.06098272749618
C           59.36331348267397       -0.00471673242661        0.15709740636062
C           58.70952080928123       -1.11101954774303        0.65883120720343
C           59.38367439962067       -2.26028315341093        1.17973715304399
C           58.42531774201401       -3.08909882911602        1.65705836925753
C           57.16679175889264       -2.43831126878079        1.43982993851752
N           57.34950874918415       -1.24196004197770        0.79175889038888
C           55.94838622992424       -2.94135931037784        1.87925998449577
C           55.93521576260436       -4.19417017527540        2.66947225896465
C           55.24312439359491       -5.31761407012464        2.21104319597819
C           55.22646972049886       -6.48929936639179        2.94672249898577
C           55.89254897673813       -6.55653716093968        4.17306354088019
N           55.90881770993441       -7.73821228121354        4.89453518858222
C           56.59106607483672       -5.43867512379793        4.63618550831637
C           56.61138747328783       -4.27419228353544        3.88915990972483
C           54.74036681180180       -2.30965453046442        1.61103737452243
C           53.47774947738197       -2.76673926774443        2.10644162734310
C           52.53116502342889       -1.95623842609525        1.57448610323304
N           54.57043226747690       -1.19975948494810        0.81457727666762
C           53.21711217532421       -1.00186314631937        0.76361748162819
C           52.56089570638220       -0.04263096648450       -0.01026185630347
C           53.24264751768277        0.91465278703366       -0.76422864566743
C           52.58547589288024        1.85491180191934       -1.61430402167644
C           53.54921778921164        2.66176158876716       -2.12047347132759
C           54.79262226187144        2.21973764313784       -1.56623917740727
N           54.59589247052699        1.11892953845606       -0.76305818784828
C           56.00591764407903        2.86055212303626       -1.78401370174904
C           56.02180185611139        4.09912952261120       -2.59620286555879
C           55.29401649509438        5.22348965040865       -2.19952203260330
C           55.30495014832927        6.37962136212238       -2.95963696620185
C           56.03620124546862        6.42981070672726       -4.14914182250091
N           56.07842479293269        7.59602155046865       -4.89408737595499
C           56.77196458736350        5.31151296127439       -4.54939471430390
C           56.76380453228654        4.16294117702811       -3.77809206841139
C           57.20525181002771        2.38064827027259       -1.27181612046140
C           58.46337564581304        3.05072796088033       -1.42253269368909
C           59.40547563106381        2.24455233705711       -0.87868619051664
C           58.72131179928716        1.08847246123622       -0.38669552558056
N           57.36938291486701        1.19458589693889       -0.60057200320410
H           60.44666795884154        0.00458261294123        0.18898640172528
H           60.45327984979218       -2.39836012284155        1.16966621161710
H           58.54659763131161       -4.05853584287957        2.11248670953791
H           54.72926348638070       -5.27474747765294        1.25692944714927
H           54.69485749209895       -7.35859876696638        2.57524371474537
H           55.14627403726207       -8.36655688947065        4.69720042153358
H           56.10420204235041       -7.63284630144480        5.87735995588987
H           57.11300004201668       -5.48615241102402        5.58571863927243
H           57.14066842834055       -3.40488010475228        4.26387105560129
H           53.34288659629435       -3.59571786071589        2.78188695116882
H           51.46262404094210       -1.98768080918979        1.71407883176447
H           51.52332134142143        1.87815333351432       -1.79753564479260
H           53.43793695329287        3.47982158419267       -2.81328449355123
H           54.72973072297935        5.19451754912936       -1.27378696530477
H           54.74443159971919        7.24992220308421       -2.63607257351414
H           55.29985965546549        8.21956147443239       -4.75198089052312
H           56.32854632415107        7.47273804694303       -5.86230849911761
H           57.34514414618629        5.34614646989759       -5.46947289729467
H           57.32293901634469        3.29274954843887       -4.10428151058125
H           58.59485567327606        4.01733558358033       -1.88116587157319
H           60.47011830359327        2.40142678582901       -0.80706882006159
C           39.07796845854767       -0.01936186458013       -0.03560009097366
C           40.29447501344247       -0.02709836907880       -0.04403198496971
C           49.93569808957488       -0.03883654259143       -0.04113000066146
C           51.15143442358978       -0.04123565070227       -0.03014847958155
Ni          45.11551563366865       -0.02904572131728       -0.02389804538017
C           41.70286152410859       -0.03241077404521       -0.04756717503180
C           42.37924042622220        1.04973721463212       -0.61821655195036
C           41.71539868006400        2.16137179333625       -1.21932618536087
C           42.66807458387963        3.08681512347608       -1.48814409942254
C           43.91673382642151        2.52907520157237       -1.06823506398235
N           43.73037426656985        1.26053813622687       -0.56579567070175
C           45.11449734360475        3.23238011119288       -1.05152681347003
C           45.10951286380240        4.66075699901148       -1.45236199075243
C           44.81614182838963        5.04068960854225       -2.76292024717124
C           44.81039504448618        6.37603995330313       -3.12783884052923
C           45.09773440843205        7.36292897523906       -2.18185611262795
N           45.04337708904178        8.70241396976899       -2.53044388978045
C           45.38262334981956        6.98984175206102       -0.86610844381685
C           45.39464986175166        5.65238667641777       -0.51156658128655
C           46.31725313876234        2.65630458842071       -0.66406778585902
C           47.57167220315457        3.34488466842876       -0.68178923894665
C           48.52836070605944        2.42431015840646       -0.41018279362114
N           46.50406917622534        1.32719805439310       -0.35772875650768
C           47.85785970875772        1.17648675955677       -0.23035120851681
C           48.52659313291076       -0.03449442521128       -0.03734839475708
C           47.85309623979644       -1.24095405241326        0.16872685236464
C           48.51482500393338       -2.49804906310451        0.30875138703931
C           47.55770795834189       -3.41084106843148        0.60661563032967
C           46.31469931523004       -2.70436852875797        0.66041635237507
N           46.50248970675383       -1.37924557976898        0.33870536747188
C           45.11174601421023       -3.27372423837378        1.06127462268744
C           45.10842258981173       -4.67893240297557        1.52505198443697
C           44.30693364915387       -5.63412211490937        0.89430623692590
C           44.30895343018422       -6.95202157062199        1.31490730050334
C           45.11622965675256       -7.34493243384703        2.38545015750300
N           45.08720177528494       -8.65292973409150        2.83857670105231
C           45.90863415068711       -6.39289636129615        3.03205893342363
C           45.90776313992644       -5.07897906820015        2.59908731920692
C           43.91110361026922       -2.57370487779538        1.03694866983421
C           42.66759852750275       -3.09977698633305        1.50940886823464
C           41.71231009939556       -2.19185385190503        1.19124078203985
C           42.37455095697162       -1.11099590084013        0.53550212298127
N           43.72531665711039       -1.32482290059665        0.48834954131080
H           40.65391940971260        2.21984015691885       -1.39586523542983
H           42.54216836182066        4.06614676967108       -1.91993562873919
H           44.60800739677742        4.27939631325854       -3.50670306652384
H           44.58581366273906        6.66024479583749       -4.15013703883253
H           45.16391761734197        8.88998862940274       -3.51306897648361
H           45.57195896926164        9.31742999404551       -1.93235463547910
H           45.59477670009472        7.75219961543268       -0.12447906784810
H           45.61018017684194        5.36914709780291        0.51287690336585
H           47.69682228882297        4.39367333418083       -0.89639347382944
H           49.59557249443144        2.56224601684957       -0.34422187923727
H           49.57521694795889       -2.65013481033052        0.18730603542447
H           47.67442597743089       -4.46992270087889        0.76905520288031
H           43.69279697221325       -5.34126100687986        0.04973354940811
H           43.68813697274718       -7.68544028038994        0.81192447536156
H           45.90282366432798       -8.94133982720526        3.35531865057403
H           44.77692173555724       -9.33004149051474        2.15989354225733
H           46.52544018439544       -6.68907723564671        3.87356601770749
H           46.51852680500733       -4.34428182853341        3.11231845672694
H           42.54977514008116       -4.03895296998780        2.02481746080379
H           40.65265483698185       -2.23636060368560        1.38330234888936
