180
 energy: -292.506601592991 gnorm: 0.000380381973 xtb: 6.5.1 (b24c23e)
C           28.03914626928015        0.05373897414188        0.06159690171774
C           28.64341540801503        1.22481668770668        0.49939086770948
C           27.98478164403929        2.39886194211266        0.96246633597035
C           28.94134926079203        3.31844901330746        1.28831811049784
C           30.21664785028346        2.74025349795555        1.02658641885858
N           29.98502469344062        1.47543626838449        0.56246624972706
C           31.47578334435230        3.31720005460091        1.21892486251664
C           31.50719187948126        4.71965806576019        1.70071851857739
C           30.95939715781897        5.71927606689268        0.99311083843645
C           30.96671321898105        7.14843122905393        1.47029114310908
N           31.94170974403641        7.34279839565102        2.54657136839901
C           32.32216240230861        6.29272952174124        3.34125502110912
C           32.16637442409261        5.01095089356352        2.96578044708694
C           32.69260275905583        2.66806928044985        0.98643975478905
C           33.99104487888575        3.29768566086106        1.14968373605604
C           34.91155136356883        2.36730619763885        0.82364235339339
N           32.84485111188172        1.38809174329152        0.55569699313843
C           34.17505098168943        1.17376512065294        0.45219240885327
C           34.80694984295643       -0.01129901528467        0.04194415005466
C           34.18133150941910       -1.19811770966514       -0.37107727089783
C           34.83452981994115       -2.40075543026981       -0.75419956739534
C           33.87424019409812       -3.31793977371309       -1.07842828659269
C           32.60295346247705       -2.70106284935705       -0.91237377249996
N           32.84035601136171       -1.42383453175643       -0.47903433946564
C           31.34396604416485       -3.27638291948161       -1.11818766091907
C           31.32111977102370       -4.68039424047446       -1.59333607252191
C           30.73478251968071       -5.65419383928731       -0.88061404245252
C           30.68798635991805       -7.08477671842465       -1.35024465542891
N           31.66779225283081       -7.32575830418445       -2.41309074342218
C           32.08694358515650       -6.29656801337781       -3.21666197877559
C           31.97529888566766       -5.00687749120176       -2.85311960347917
C           30.12708072439222       -2.62038156953427       -0.90435384221667
C           28.82255321566617       -3.19998145124446       -1.18344268973863
C           27.90901333099750       -2.26637317524184       -0.84815812189482
C           28.65413500809122       -1.11288030855424       -0.37586386848560
N           29.98544491232468       -1.35824987079562       -0.43240312756377
H           26.95362365703317        0.05975429834442        0.06293699222452
H           26.91463361297593        2.50973740623849        1.03775974610977
H           28.78451258569695        4.30853028564891        1.68476400948340
H           30.71539431736786        0.81959862511725        0.30602800746283
H           30.47147001686378        5.54489175710595        0.04112130403610
H           29.95710082168295        7.44128907437301        1.81528359897616
H           31.23439214128511        7.82148956098081        0.64445391575265
H           31.87847254316681        8.24423281361738        2.99700366419300
H           32.83301648849109        6.57668155752481        4.25580682715640
H           32.51736135635132        4.19630715481872        3.58306922862560
H           34.15321519742152        4.31647593991108        1.46265755815209
H           35.98625420423373        2.45619308755519        0.81816553098568
H           35.90389657288041       -2.53741006059920       -0.76953207503095
H           34.02857232626696       -4.33528017747428       -1.39937079283917
H           32.11192630168969       -0.75236572221350       -0.25946315364262
H           30.24991116799703       -5.45447847210658        0.06780085116552
H           29.67148281488652       -7.33693746766996       -1.70655594971959
H           30.91738413713218       -7.76363898903434       -0.51789081512629
H           31.56914521319841       -8.22608660071694       -2.85981097883260
H           32.59143218406079       -6.60652443932374       -4.12634188685717
H           32.35441835514150       -4.21114201217600       -3.47863431270732
H           28.65352633229078       -4.18227584300401       -1.59453079872816
H           26.83329395481290       -2.32013748970633       -0.91256946164385
C           56.51814441667303       -0.06355321905009       -0.04459455766223
C           55.91215661729731       -1.28341995755953       -0.31455423864039
C           56.56806306636765       -2.52481985047825       -0.54983052019738
C           55.61023420207688       -3.46910787990851       -0.79000963558035
C           54.33701923680285       -2.83393839175627       -0.72047366077153
N           54.57078485532829       -1.52116426924314       -0.41904589495198
C           53.07762406034326       -3.41272782594719       -0.90521621547415
C           53.04281997204811       -4.85206800035386       -1.26098624935084
C           53.62096713812113       -5.31800261108618       -2.37844604924966
C           53.61234581685938       -6.77940025117928       -2.74553941998749
N           52.60381366998627       -7.51301353360540       -1.97656104752575
C           52.18915994461405       -7.05320940784973       -0.75357498770569
C           52.34643532359689       -5.77294599792098       -0.37381289299642
C           51.86236881517232       -2.73245746495070       -0.77523828476305
C           50.56551165076866       -3.33582779824979       -1.02665758701518
C           49.64543542603407       -2.37766624857674       -0.79263853359084
N           51.71037368756502       -1.43061109950629       -0.41665793013255
C           50.38079711399126       -1.18851035321120       -0.40538171548785
C           49.74911131374169        0.01460426926678       -0.05168768253027
C           50.37641688278132        1.21989103446080        0.30064477442718
C           49.72607524359569        2.42588610612365        0.67788168924825
C           50.68779415337625        3.36909741891101        0.91049764247193
C           51.95693085691275        2.77038080868405        0.67569147578354
N           51.71734268592598        1.47005243680820        0.31963821184766
C           53.21597194064851        3.36921125166333        0.79761600219730
C           53.23886241814494        4.80494312165709        1.16532303471624
C           53.84744013706626        5.23816589907325        2.27977409147565
C           53.89597956041972        6.69484108182500        2.66082150258321
N           52.89437122248139        7.46927324502529        1.92273494553960
C           52.44992617434170        7.03979476487202        0.69849916056432
C           52.55994845773949        5.76031097563078        0.30027088837209
C           54.43207014750470        2.70731343045893        0.59805016236919
C           55.73636615253859        3.34741085180934        0.66683036407258
C           56.64944492109256        2.38164329676298        0.43826759976868
C           55.90405288917704        1.15551040324431        0.21522300325990
N           54.57305143733593        1.39155988938151        0.30690939581335
H           57.60362495215981       -0.07209670163992       -0.03938128552069
H           57.63723484621223       -2.66474319837051       -0.52814386727322
H           55.76492216508731       -4.51701174044479       -0.98994754644699
H           53.84212662306835       -0.82705819501081       -0.29039201438968
H           54.13635740718957       -4.66295660029239       -3.07127944789903
H           54.61285530623955       -7.22112038191511       -2.57800190117954
H           53.37966365210175       -6.90024988307457       -3.81222810710940
H           52.65995482217945       -8.51566213255167       -2.08154817682264
H           51.65140976536156       -7.77996349909348       -0.15303572797556
H           51.96871864822987       -5.41576893324766        0.57362342759155
H           50.40452929228817       -4.35246768241351       -1.34719725037718
H           48.57182246474765       -2.44096206017818       -0.87197064131807
H           48.65762085450535        2.54400857276253        0.76109528899925
H           50.53617232508710        4.38953034547684        1.22282796242238
H           52.44392694301725        0.79375987125117        0.10905152587720
H           54.35038444134327        4.55780281403564        2.95696592835467
H           54.90634522943483        7.10488957806176        2.47398619389328
H           53.69169896413337        6.81221881119957        3.73352243103456
H           52.99034009640475        8.46834916085495        2.03471568075524
H           51.92812132356777        7.79151439175788        0.11476275564813
H           52.16095388682631        5.43003836108675       -0.64839940910350
H           55.90566133572786        4.39612462603269        0.85121688445818
H           57.72490648577362        2.46276542076189        0.40640488013204
C           36.22529203629881       -0.02358742254109        0.03624157377316
C           37.43956348219852       -0.03387523976743        0.02885909454835
C           47.11644666607283        0.03601687935235       -0.02787160196817
C           48.33061215502649        0.02718585197087       -0.04335959596473
C           38.85718674980823       -0.03994691379755        0.01945388602550
C           39.48407435095601       -0.19525225404479        1.26547899285841
C           38.83871285931485       -0.33350892444278        2.52343671364674
C           39.80613581625506       -0.45484565303221        3.48188749249620
C           41.07327364435590       -0.40141060908601        2.83716756383646
N           40.82724138845386       -0.23819544243942        1.50028142900707
C           42.33373685568876       -0.47353386396643        3.43858099597893
C           42.36095920881253       -0.68891481488781        4.90674654079873
C           41.85952945688035       -1.80226638832990        5.46235042151300
C           41.92527039198576       -2.06712106593598        6.94353589430347
N           42.21454469870615       -0.83943888311180        7.68927954910709
C           42.86769278254351        0.20607927337621        7.08988124009611
C           42.94422890757485        0.34061650787674        5.75414059041637
C           43.55526934397883       -0.36394229225859        2.76939453267928
C           44.84658245931046       -0.49888396663683        3.42074700209616
C           45.77883418574815       -0.35125560200784        2.45712212985161
N           43.72307365934284       -0.15158706767606        1.43769125662275
C           45.05628620414402       -0.13496132163892        1.21822783635145
C           45.69855707767549        0.04188959432845       -0.01772533493667
C           45.07165636366715        0.21098060719209       -1.26190739341689
C           45.71696300895290        0.36321749144793       -2.51827392448156
C           44.74943818203091        0.48245231554778       -3.47688228545405
C           43.48223692053730        0.41373866426399       -2.83380779886851
N           43.72834460764113        0.24603029275930       -1.49752895950541
C           42.22193347883002        0.47207990130257       -3.43706114591384
C           42.19476625949344        0.68585724376953       -4.90558060098004
C           42.67989220746679        1.80651899068542       -5.46083743596740
C           42.61305568958980        2.06868821054460       -6.94246721241868
N           42.35044991530047        0.83447212054954       -7.68723681033240
C           41.71137819645729       -0.22053376010956       -7.08917495235847
C           41.63078962873488       -0.35390316773535       -5.75353999858544
C           41.00063871239507        0.35040520329305       -2.76985159704009
C           39.70912133028510        0.46731132696942       -3.42420859114444
C           38.77688056741035        0.32026309104593       -2.46049623625139
C           39.49960143858544        0.12219024774480       -1.21861593262801
N           40.83278119454479        0.14676587937889       -1.43667575016665
H           37.77000594506164       -0.33298090706351        2.66597142787163
H           39.66074761255238       -0.56246034627293        4.54442440215130
H           41.54598896010363       -0.15475001294475        0.78922097315237
H           41.44754328958749       -2.60417364267125        4.86065510013470
H           42.69295016402656       -2.83350420908734        7.16097638694596
H           40.96398074410448       -2.46230907351965        7.29950822962246
H           42.42156579335592       -0.99411139268190        8.66543674629779
H           43.24301711842397        0.95884743215933        7.77580144842179
H           43.39545781087519        1.21178571730257        5.30100352682216
H           44.99588613019407       -0.69392792987713        4.47061407924578
H           46.85286927266439       -0.38940543097343        2.54646795775171
H           46.78574780733700        0.37238736398305       -2.65990745348794
H           44.89487679196430        0.59796572562444       -4.53858047138001
H           43.00967090888459        0.15227060180153       -0.78766682642531
H           43.07786696348335        2.61523219156927       -4.85884235724226
H           41.83078957610462        2.81934476690634       -7.16290767116411
H           43.56722440160218        2.48241257827492       -7.29633865524071
H           42.14648633359442        0.98346783738353       -8.66492498555562
H           41.35176924184857       -0.98059581168126       -7.77547443268315
H           41.19155219523184       -1.23141877174474       -5.30085246857696
H           39.55951743678291        0.65078845190641       -4.47612007820948
H           37.70268383534988        0.34782906267459       -2.55178272589509
