234
 energy: -403.175030566120 gnorm: 0.000793205641 xtb: 6.5.1 (b24c23e)
Ni          43.31112208530928       -0.00078046285320        0.00941420497792
C           39.91390870629552       -0.02751168246339       -0.00833501163568
C           40.57066036863960       -1.23358957827579       -0.13364038322652
C           39.89324268219844       -2.48813409479752       -0.25648341657649
C           40.85095981005831       -3.44313862568460       -0.30028688796195
C           42.11347512076952       -2.76970954952418       -0.21091660617553
N           41.93125503020250       -1.41255556353655       -0.11440981350238
C           43.33453257066396       -3.42834057319120       -0.16218832244958
C           44.54532006100054       -2.76092706209929       -0.04458101960903
C           45.81363751954257       -3.42402527462820       -0.01584857698269
C           46.75975088042918       -2.45672031920491        0.04036339045441
N           44.71444414339302       -1.39468050226968       -0.00579589741468
C           46.06838908776476       -1.20688866548056        0.03698584875979
C           46.72745622781060        0.02511975489098        0.02517605409620
C           46.04877483298176        1.24627144603890        0.01151271717015
C           46.71906529779929        2.50692792998293       -0.02407268560385
C           45.75729723374090        3.45952812998038        0.01949948960524
C           44.50144766813391        2.77617725535090        0.09001408459177
C           43.27922179111663        3.42691977712151        0.18314330413381
C           43.26723485164514        4.90874468514646        0.26186009585596
C           42.68490663189641        5.66596479074380       -0.75493534515174
C           42.67627393447883        7.05078513838081       -0.67932606203349
C           43.24261671894097        7.69390009009931        0.41284294627128
C           43.82156331951640        6.94662238826004        1.42953278636530
C           43.83739775793709        5.56187565855273        1.35494700539907
C           42.06717617836397        2.75005239271561        0.20550043993334
C           40.79528221191632        3.39892498582743        0.33405789222998
C           39.85293272932792        2.42938841185193        0.27466815483778
C           40.54998670618040        1.18916242736486        0.12110279104589
N           41.90729625639761        1.39098911629679        0.09858965405346
N           44.69202376770178        1.41259435942710        0.06046900136079
C           43.34493081541267       -4.91103271671818       -0.23844441602168
C           42.94299181531595       -5.55978800513166       -1.40604687951729
C           42.95565219718758       -6.94489424389686       -1.47676209095610
C           43.36391421210993       -7.69599287188913       -0.38300860135478
C           43.76263759832182       -7.05666511699981        0.78294756154046
C           43.75630512338077       -5.67166365045830        0.85605967358453
H           38.83013577239153       -0.03701383421239       -0.00701536171020
H           38.82152129535115       -2.60243497305408       -0.29296552050595
H           40.72777876174122       -4.51143316586114       -0.37355852226844
H           45.95181196601060       -4.49233001216465       -0.04790863888577
H           47.83204095720476       -2.56336047445466        0.07175329605157
H           47.78869841153092        2.63024997636076       -0.07765923966599
H           45.87607419734618        4.53047860941430       -0.00097358302766
H           42.25148023328258        5.16492198597072       -1.61335539138786
H           42.22572531440687        7.63029353579807       -1.47749024119102
H           43.23289374957445        8.77638226742190        0.47156358318876
H           44.26278594330415        7.44430920197320        2.28597821454617
H           44.28093022091468        4.97852772998185        2.15417371227981
H           40.65592381743567        4.46044327223793        0.45885540928110
H           38.78017784869459        2.52423783560112        0.33119649541700
H           42.63337178056899       -4.97345242462694       -2.26402227310564
H           42.64600305559691       -7.43972695668618       -2.39062479498680
H           43.37135932475627       -8.77861913529037       -0.43923812677132
H           44.07983380195115       -7.63916890980920        1.64081809424477
H           44.05862949282189       -5.17303526425529        1.77022763885999
Ni          83.61099932165253        0.05631641883342        0.02136706063445
C           87.00790617547050        0.07708425596270        0.04151363280304
C           86.35440738887118        1.28873633043493       -0.03914581280335
C           87.03517200303490        2.54588243467724       -0.10140466310820
C           86.07948101737870        3.50376000604246       -0.11860191932119
C           84.81490685378365        2.82981044344443       -0.07261236222432
N           84.99394408070648        1.46944954002125       -0.02940359125119
C           83.59447277684595        3.48859403788540       -0.00991767984811
C           82.38162161706127        2.81933988552646        0.07129678571211
C           81.11412322698612        3.48296366595304        0.11890451168376
C           80.16631900385470        2.51580708687422        0.13422536001216
N           82.21014647086574        1.45292704344547        0.05560223322126
C           80.85578582526878        1.26591509473941        0.08543580063661
C           80.19470929280908        0.03651603016559        0.02278668721094
C           80.87108639237721       -1.18416151209355       -0.04299094906566
C           80.19834475648469       -2.44039806667164       -0.13806921841495
C           81.15813386206715       -3.39597185106385       -0.13684165843111
C           82.41514214256520       -2.71935707150268       -0.03081137230013
C           83.63571893161455       -3.37625367680489        0.03844419108379
C           83.64492419628938       -4.86007335670536        0.04935099820945
C           84.23774244300562       -5.57128927738428       -0.99427912968949
C           84.24396181233686       -6.95814088875457       -0.98169033034062
C           83.66446112050001       -7.64941922998188        0.07352815804427
C           83.07512968064100       -6.94820798524186        1.11673426323024
C           83.06203453631142       -5.56149908214858        1.10525741055970
C           84.84864333144039       -2.70339474472834        0.10145451011849
C           86.11827404736192       -3.35993079755025        0.21247549697654
C           87.06246461417062       -2.39038256535221        0.20989962025065
C           86.36877197113165       -1.14304205954980        0.10741091030276
N           85.01150636059450       -1.34110634060079        0.06039688873996
N           82.22735709697024       -1.35539293970810        0.00179329031034
C           83.58728955744597        4.97304117125564       -0.02597334694948
C           84.00884488809166        5.66816204497245       -1.15951070013532
C           83.99915120391526        7.05503080716449       -1.17387088843999
C           83.57400468881794        7.76177437836895       -0.05723999501590
C           83.15567007755716        7.07623688559355        1.07510805836236
C           83.15938418329422        5.68943081562020        1.09190236225847
H           88.09159306667404        0.08452028657085        0.05656449008621
H           88.10743084187446        2.65948183373513       -0.11947311306282
H           86.20535419835400        4.57388258513739       -0.14638926649936
H           80.97726271925609        4.55187609709477        0.12694197005848
H           79.09407367117022        2.62313426062280        0.16469183038534
H           79.12861082977820       -2.55872603443683       -0.20023376173560
H           81.03708199098926       -4.46450838445579       -0.20758713192105
H           84.68134661394495       -5.03255696602275       -1.82420575846926
H           84.70300289284438       -7.50142158065037       -1.80023848468098
H           83.67208622725204       -8.73346814156125        0.08292515669640
H           82.62365662936830       -7.48361099723301        1.94462017239237
H           82.61078491561123       -5.01450499321344        1.92559477499572
H           86.25503280372270       -4.42639418597688        0.28835670449981
H           88.13439959754191       -2.48976979006360        0.27373240495104
H           84.33133701102751        5.11674855570558       -2.03570714463100
H           84.32436814104781        7.58602784645205       -2.06164877763854
H           83.56872512710275        8.84580179225415       -0.06940528092650
H           82.82513439598883        7.62392068146359        1.95070146411167
H           82.84220156670804        5.15466674593119        1.98024174432774
C           49.35478747704621        0.03785740669599        0.01639075269412
C           48.13319506067202        0.03469235030371        0.02098716126753
C           50.70502424026809        0.03977358164803        0.01167540222831
C           51.92661946266988        0.03913740687695        0.01067741354348
C           62.78537264528503        0.04876579723894        0.01902868263580
C           61.56361964278741        0.05032726359455        0.02381186723429
C           64.13556696204833        0.04572695988533        0.01309882586334
C           65.35742214879274        0.04017596841011        0.00781059170813
C           76.21720191372617        0.03022196848842        0.02247492203189
C           74.99561126159293        0.03111976858303        0.02421719175525
C           77.56742863029523        0.03050676424352        0.02184314770345
C           78.78896459579558        0.02968660815971        0.02011487781752
Ni          56.74545599830689        0.04350504517885        0.02391913805730
C           53.33139489036483        0.03887014160897        0.01193788128309
C           54.00485096094257       -1.17376300368368        0.18603531452954
C           53.33851615571983       -2.41766182585515        0.40327295593799
C           54.29538733367858       -3.37754155698491        0.39648149124223
C           55.54265170808347       -2.71573225409014        0.16441316193429
N           55.35636151008654       -1.35448537055223        0.08064451871027
C           56.74935280819028       -3.37745818179330       -0.02193691635138
C           57.95420613332134       -2.70800772299051       -0.19034548311665
C           59.20290194360938       -3.36040333659544       -0.44095692199436
C           60.15726488970031       -2.39819733129806       -0.42466731002012
N           58.13733614580609       -1.34879386987280       -0.07128914237194
C           59.48813288199565       -1.16192303861221       -0.17431332640450
C           60.15872737751123        0.04817187646441        0.02735436966429
C           59.48325081017860        1.25485094453269        0.23367597210829
C           60.14774179079311        2.49089272128797        0.49660890704214
C           59.19015554214447        3.44982813337502        0.51969458367352
C           57.94451823293893        2.79638108357023        0.25716869966294
C           56.73962053022127        3.46401595452372        0.08012928697376
C           56.73531809139055        4.94603444630218        0.10578624359727
C           55.97950678710019        5.63432075370640        1.05592469969943
C           55.97517737487027        7.02082661202231        1.07748589799979
C           56.72008785308179        7.73590375164741        0.14955703365156
C           57.47311583265623        7.05839622323328       -0.79973543770003
C           57.48391331043550        5.67189766866240       -0.82172876205117
C           55.53691667916282        2.79926282719474       -0.12248894240486
C           54.29039283814104        3.45708031913279       -0.36927559798941
C           53.33636436465064        2.49441404439216       -0.38506894349442
C           54.00389046757741        1.25270452880115       -0.15902046919771
N           55.35377357537325        1.43734965628144       -0.04127521695993
N           58.13209216456669        1.43828900690598        0.12910109356080
C           56.74999114850988       -4.85994679143812       -0.04341367095821
C           56.02649649064728       -5.55220413683844       -1.01546151695020
C           56.02934902777587       -6.93875542434383       -1.03564214351455
C           56.74790370539392       -7.64934601961331       -0.08357315277320
C           57.46771254480357       -6.96753242589912        0.88818684507997
C           57.47290515036511       -5.58091853922973        0.90786985381215
H           52.27465500955054       -2.52707177025663        0.53931626458150
H           54.17726500523912       -4.43945492784206        0.53774774439251
H           59.32346670819735       -4.41806081368558       -0.60951408735212
H           61.22114682622737       -2.50140268258487       -0.56534000473556
H           61.21083576779612        2.59570154697411        0.64197433732255
H           59.30699546149359        4.50587347778327        0.70037261764590
H           55.40683099235786        5.07716435098058        1.78898646495324
H           55.38754514261151        7.54532391438018        1.82271497181506
H           56.71359096674055        8.81985629743769        0.16608200748526
H           58.05432165992598        7.61234438137635       -1.52849375269585
H           58.06181040319413        5.14433423330188       -1.57233973021168
H           54.17004647487013        4.51825199555481       -0.51407549508784
H           52.27379372312458        2.60070688158585       -0.53296497630539
H           55.47422346473613       -4.99798620594874       -1.76618807038944
H           55.46827375475387       -7.46668383202085       -1.79882868622360
H           56.74645040331968       -8.73334241126217       -0.09869976208483
H           58.02763173694705       -7.51823049330727        1.63587258588811
H           58.02639457930777       -5.04954684280207        1.67409387335942
Ni          70.17654527569600        0.03386882185689        0.01850214826245
C           66.76236282189885        0.03735043167595        0.00677119049688
C           67.43326279718890       -1.18016832467129        0.15578642082071
C           66.76341158021935       -2.42619858762049        0.35006039496648
C           67.71846487846464       -3.38767434006456        0.33362810318695
C           68.96823522513715       -2.72483914178849        0.11852366326704
N           68.78480628901502       -1.36187484510696        0.05346234522204
C           70.17476145958969       -3.38624630470824       -0.06815001371647
C           71.38129412094152       -2.71694967454919       -0.22560819046142
C           72.62923872832306       -3.36932044362964       -0.47997965378528
C           73.58507493159914       -2.40885507799370       -0.45374803769253
N           71.56620156195130       -1.35946318495841       -0.09322501866409
C           72.91762083142932       -1.17397429479365       -0.19259447274777
C           73.59082827362676        0.03172534758961        0.02467272774861
C           72.91839190352893        1.23753793812822        0.24517662044581
C           73.58608647421420        2.46917534159009        0.52004602498997
C           72.63096740814039        3.43034170211704        0.55167600981863
C           71.38373184754558        2.78233658930875        0.28382344921886
C           70.17947185368196        3.45433226040186        0.11862751158518
C           70.18161446423184        4.93605806247210        0.16292780851883
C           69.44122963952411        5.61552567166729        1.13141343726719
C           69.44900517406332        7.00152961259967        1.17468226517195
C           70.18985033629043        7.72478048638393        0.24982092010534
C           70.92639837548268        7.05602454496048       -0.71847900006135
C           70.92575579018555        5.66997455608733       -0.76171621675936
C           68.97437938136642        2.79503510739098       -0.08567178228088
C           67.72830548759968        3.45982260413325       -0.31560460717696
C           66.77166942407156        2.50005762825514       -0.34127728297305
C           67.43711145340525        1.25313104459783       -0.13950477502964
N           68.78792253170575        1.43231229963301       -0.02411981108743
N           71.56782545085532        1.42541044452082        0.14195245136306
C           70.17653021380045       -4.86860242679382       -0.10168144551570
C           69.46296339770097       -5.55475862493510       -1.08514128856333
C           69.47097354595722       -6.94114534830309       -1.11722018702502
C           70.18451864591226       -7.65748182123942       -0.16579674367017
C           70.89382818974664       -6.98167893451138        0.81791326284347
C           70.89392609327810       -5.59533830473122        0.84950748917677
H           65.69863902921900       -2.53555454164996        0.47880888475750
H           67.59769392542175       -4.45141921406951        0.45766134142569
H           72.74823651850862       -4.42561044570703       -0.65795887727699
H           74.64905008852271       -2.51231016745846       -0.59357049735125
H           74.64935319904298        2.57029441224443        0.66651508965119
H           72.75100494504233        4.48440710978608        0.74153148836217
H           68.87189133145326        5.05160812665770        1.86201552474623
H           68.87501885853314        7.51911513589263        1.93519360110813
H           70.19341396141660        8.80834795753391        0.28378782187898
H           71.50421535308682        7.61650006781258       -1.44488894073674
H           71.49215575470234        5.14925860803303       -1.52577945330281
H           67.61059919880809        4.52352789779198       -0.44317956446091
H           65.70866487422143        2.61113279320739       -0.48243740150832
H           68.91479839137408       -4.99603788980906       -1.83557813668986
H           68.91833528915168       -7.46440438380815       -1.88962839469851
H           70.18796522250219       -8.74128949478076       -0.19094950135343
H           71.44995148411678       -7.53686111437942        1.56521880488101
H           71.43957646747880       -5.06856351100818        1.62445192410026
