248
 energy: -453.556387860617 gnorm: 0.000948023528 xtb: 6.5.1 (b24c23e)
Ni          46.84015322584066        0.03504461116464        0.02760845283197
C           43.44978841196237        0.05113183687429        0.14536482215876
C           44.10597561281324        1.26277097861714        0.20808945955377
C           43.43509408497976        2.52455222120886        0.28387551196222
C           44.39611708277016        3.46726888865306        0.42413156086944
C           45.65314047833849        2.77786124990274        0.44938374221591
N           45.46674023855708        1.42955497124950        0.27581945940525
C           46.87486507736402        3.39846680813420        0.67713209469373
C           46.89400873327431        4.85448648662469        0.95097471120654
C           46.23859158814888        5.37479987437629        2.06912304455437
C           46.25869908403307        6.73361013932665        2.32801967895262
C           46.93324399583172        7.60165655950096        1.46433966631933
C           46.95283146569145        9.00104713572030        1.72519911969596
N           46.96901991261267       10.13177026755269        1.93784819383989
C           47.58846344192228        7.08578516918477        0.34224022864140
C           47.56986673750123        5.72524146169942        0.09319668506602
C           48.08039219864516        2.70915460710295        0.66496683315213
C           49.34398816707002        3.30955304994552        0.96871998243451
C           50.28668939617260        2.35636988205302        0.77408941293607
N           48.24536817492343        1.38517767616149        0.32699581793620
C           49.59696589754784        1.17686159245997        0.35835605277930
C           50.25195822385225        0.00836256439687       -0.04085795235230
C           49.56417239246345       -1.14534896027619       -0.42767478080558
C           50.21751419307289       -2.32734909805640       -0.89177134972271
C           49.25143422592711       -3.25964636656211       -1.07318480798228
C           48.01112118761268       -2.64636124400835       -0.70566673306360
N           48.21139284649730       -1.33183256250207       -0.34960378496921
C           46.79698017792558       -3.31937786880149       -0.66660670696163
C           46.77795444417789       -4.76988245467235       -0.96764622723474
C           46.04142377309101       -5.25945551645434       -2.04867407087536
C           46.02142941708521       -6.61337699670694       -2.33184324163293
C           46.73700272139850       -7.50763163744173       -1.53013544370220
C           46.71536868241197       -8.90216000654995       -1.81564335874645
N           46.69720766902508      -10.02944163392460       -2.04595288484586
C           47.47366719475300       -7.02271695281076       -0.44537952601902
C           47.49409579129313       -5.66690822940662       -0.17178344241646
C           45.59962836206520       -2.68960740267586       -0.35024229941893
C           44.34089666618803       -3.36823731259299       -0.24459666536592
C           43.40244922050634       -2.42008011069373       -0.01611772727450
C           44.08916883276364       -1.16533169863240        0.02784823319957
N           45.43976247920374       -1.34288040552347       -0.14233369299329
H           42.36685373733404        0.05555337775414        0.18587474394439
H           42.36555838676567        2.65194606653440        0.23267436581655
H           44.27795937863902        4.53578370689127        0.50225036276627
H           45.72425744742858        4.70323058623608        2.74723166702035
H           45.75339575580912        7.12976738406023        3.20103936966244
H           48.10945502484275        7.75628793901420       -0.33110473494503
H           48.07049274232462        5.32928924646588       -0.78314734282866
H           49.48113229927869        4.32749947060939        1.29494613101264
H           51.35538621007218        2.43073979840823        0.89408696877383
H           51.27948493150065       -2.41636077039475       -1.05416414387633
H           49.35866898620080       -4.27176963858507       -1.42753710238616
H           45.49411830507105       -4.56762143535553       -2.67891903448342
H           45.45238391583723       -6.98550540960638       -3.17571521169121
H           48.02660250578442       -7.71356026158548        0.18025107313567
H           48.05691885991620       -5.29553495153743        0.67714659101786
H           44.20664994760588       -4.43419584308553       -0.33112049610821
H           42.33848270904720       -2.53914696567939        0.11250727730008
Ni          94.84326504271066        0.01013357231444        0.05270641205674
C           98.23462517157630       -0.00240059263871        0.15867485571501
C           97.57813919239265       -1.20823374901761        0.29066435991591
C           98.24930016763552       -2.46416669766723        0.43248042020013
C           97.28834827937858       -3.39878907108410        0.61905561050267
C           96.03112139337271       -2.70925560496054        0.60780390820275
N           96.21739816553665       -1.37132985122311        0.36655082514523
C           94.80953135114520       -3.31842155011476        0.86438308013296
C           94.79072246586794       -4.75984174916916        1.20732310528149
C           95.44400979561109       -5.22541194759074        2.35056231638395
C           95.42468417473725       -6.57030068285193        2.67401947150394
C           94.75291593040751       -7.47932486181092        1.85131745477003
C           94.73304294710589       -8.86434150767086        2.17992177905380
N           94.71971935227111       -9.98447553239246        2.44339041581812
C           94.09965736961810       -7.01835851703989        0.70445419879149
C           94.11752679768429       -5.67121594385198        0.39070341772783
C           93.60398159847317       -2.63035140869303        0.82161694140081
C           92.34147028193939       -3.21619836367610        1.15699850029019
C           91.39845273573812       -2.27160794606014        0.92626518372240
N           93.43832567776580       -1.32265552339859        0.42622100312530
C           92.08679446301377       -1.11170561380148        0.45625223026681
C           91.43058103855179        0.04007843661548        0.01468414693950
C           92.11569696255151        1.17411454574580       -0.42892965205702
C           91.45867774844479        2.33400380844314       -0.94150942773554
C           92.42476647335053        3.25119348317538       -1.18729318984150
C           93.66902547726237        2.65230240851473       -0.80908548923465
N           93.47031644927422        1.35934506052123       -0.38092168493062
C           94.88601734969720        3.32099857675715       -0.82784599244623
C           94.90647894159098        4.75118981252450       -1.21434179121486
C           95.62708800917044        5.17123854478179       -2.33463874909602
C           95.64868429192711        6.50572050265941       -2.69846447393562
C           94.95085361967904        7.45023401196555       -1.93990081127412
C           94.97347040945384        8.82494378246271       -2.30916493038408
N           94.99342571857299        9.93631701037981       -2.60673932522449
C           94.23067904505341        7.03512516820185       -0.81583450010625
C           94.20855991605312        5.69817687242476       -0.46139388157510
C           96.08546691545244        2.70653586931792       -0.49049359608762
C           97.34621452221651        3.38758258824233       -0.43627202837116
C           98.28436144176698        2.45361359227886       -0.15476755070576
C           97.59581998512742        1.20531946761348       -0.02954317994195
N           96.24448177341108        1.37455161437931       -0.20261350247072
H           99.31764337525635       -0.00515295277546        0.19706894306098
H           99.31892108515684       -2.59368288859982        0.38892476208830
H           97.40665199370945       -4.46192771406849        0.75142374185755
H           95.95607784061575       -4.52163551869220        2.99697766718774
H           95.92825819411024       -6.92375263708225        3.56615486744857
H           93.58062181094182       -7.72079011665936        0.06289112892313
H           93.61823115479244       -5.31804572964438       -0.50448467427038
H           92.20549587935756       -4.21893161576936        1.52780628662905
H           90.33040699802747       -2.33957289452346        1.05541055324368
H           90.39442473742704        2.41907709573598       -1.09059123875997
H           92.31507666833910        4.24402972888854       -1.59184863235102
H           96.16064192313237        4.43995092095824       -2.93123911675526
H           96.20516208735214        6.82363520576388       -3.57234970979882
H           93.69181105642376        7.76519848209554       -0.22336338944723
H           93.65874281497514        5.38137348906443        0.41763822523306
H           97.48164311871926        4.44582681026197       -0.58974606286690
H           99.34931476562046        2.57812079029120       -0.04022669483457
C           55.45294404482608       -0.01274137747977       -0.07222291029898
C           54.22494092102504       -0.01392287508200       -0.07218840872904
C           52.88006982809292       -0.01376898579566       -0.06606960019892
C           51.65672260603808       -0.00395522932434       -0.05638312055634
C           56.79767340009165       -0.00837462098081       -0.06926241034858
C           58.02123660830137       -0.00086992252892       -0.06437996251786
C           71.45258834399051        0.01424033017602        0.04487804293712
C           70.22456297226573        0.01363658003838        0.04278602806034
C           68.87997864607054        0.01367480922965        0.03637919126678
C           67.65640410203146        0.01357671014224        0.02840095986091
C           72.79719062363498        0.01679998638462        0.04281575349767
C           74.02076226712627        0.02008939987881        0.03825711345948
C           87.45570618229843        0.06163343668877        0.00099920878609
C           86.22806582678325        0.06147570323472       -0.00531865426938
C           84.88237745183733        0.05983996191079       -0.00723030614257
C           83.65918997427953        0.05736515518144       -0.00870671708203
C           88.80151715757081        0.05800322043162        0.00397759143537
C           90.02455996548129        0.05306260141550        0.00751284494690
Ni          62.83896740359989        0.01059163312140       -0.02830671018698
C           59.42535210956272        0.00373621067265       -0.05696824356559
C           60.10382439136514       -1.18898232818082       -0.32592239904667
C           59.44216973084376       -2.42972409732955       -0.57371357338173
C           60.40203025007420       -3.31783999420200       -0.92955584332938
C           61.64652171546851       -2.61182682261837       -0.90623239644224
N           61.45595006999204       -1.31439867693622       -0.48881690466914
C           62.85625278286680       -3.15555529881847       -1.31899324243125
C           62.86233481356363       -4.52559735972680       -1.88216317176392
C           62.13375618952117       -4.81819886132364       -3.03737696857245
C           62.13968742105533       -6.09520669952478       -3.56907261610130
C           62.87291345999267       -7.10990089206605       -2.94673742744927
C           62.87794411865770       -8.42641243011079       -3.48858164953159
N           62.88320775379817       -9.48962736108141       -3.92829700893676
C           63.60079203934987       -6.82274998650893       -1.78817428383436
C           63.59617845957516       -5.54177267089551       -1.26599070958599
C           64.05990159282425       -2.46906212148393       -1.22540638064477
C           65.31237139231291       -2.98098332535822       -1.69148825021094
C           66.26285114746074       -2.09201315992474       -1.31349905605855
N           64.23661184668842       -1.24895487633922       -0.61341310521434
C           65.58737187767854       -1.03639430139621       -0.62921645607808
C           66.25240867256200        0.01250631061326        0.01328324196499
C           65.57059792600475        1.06164603981247        0.63743524996818
C           66.22777195213828        2.12001616983349        1.33504060575960
C           65.26780778620490        3.01119643527262        1.68282953420696
C           64.02803178321774        2.49739348414062        1.18580625865607
N           64.22064266972829        1.27403495125681        0.58537919610625
C           62.82207908241067        3.18419020919140        1.24434057319109
C           62.81484350302348        4.55965225215472        1.79363427790407
C           62.05108515815202        4.86776245184559        2.92185115361492
C           62.04322046471433        6.15107643566139        3.43809849488923
C           62.79871396076461        7.15665020412173        2.82773722002722
C           62.78903069285199        8.47971383108034        3.35328842167031
N           62.78115425913126        9.54909131332276        3.77806646316720
C           63.56317329948291        6.85377168964632        1.69710672034477
C           63.57137757008703        5.56681587086110        1.18998899590207
C           61.62236356918431        2.63465198900844        0.81008855922117
C           60.37511581078631        3.33626873203341        0.80524097204274
C           59.42423364915244        2.44070591991363        0.44386206147194
C           60.09447459996297        1.20058339670246        0.21743616679237
N           61.44335680891786        1.33290085009902        0.40059379753388
H           58.37906326173707       -2.58511434547166       -0.48594722220200
H           60.28758992653966       -4.35917315488887       -1.18252561106568
H           61.57268913444292       -4.03105308802747       -3.52828584742157
H           61.57753639289307       -6.31341970978468       -4.46950643660155
H           64.16701581746302       -7.60794637384103       -1.30107965840297
H           64.15272031354417       -5.32517235285094       -0.36115943408561
H           65.43838038478788       -3.90065220162390       -2.23902306868305
H           67.32788710316471       -2.13457692455413       -1.47454108236259
H           67.28812158440650        2.16288453998147        1.52450003261302
H           65.37950664115274        3.93305785693523        2.22978326704441
H           61.47308791856111        4.08785532726536        3.40456817826750
H           61.45278273874123        6.38138658151180        4.31714423407873
H           64.14744606505627        7.63156970653480        1.21956987386665
H           64.15607217713884        5.33831181091900        0.30608926200463
H           60.25244794417745        4.37976729927891        1.04503306217344
H           58.36209992308822        2.59111650249943        0.33755142835581
Ni          78.83932191393762        0.04540064412113       -0.00194713455118
C           75.42488914261641        0.02680554873835        0.02751908790627
C           76.10200767531705       -1.16088693737203       -0.26504052261789
C           75.43886985208744       -2.40049694760410       -0.51507196164781
C           76.39531446444710       -3.28400197926662       -0.89052372239755
C           77.63915754436404       -2.57630261938036       -0.87672615258748
N           77.45196186347145       -1.28226646850982       -0.44719567028282
C           78.84492981840415       -3.11702290675046       -1.30391926937096
C           78.84617979322888       -4.48600530193573       -1.87004761800239
C           78.10828917785720       -4.77695859433034       -3.01972725541687
C           78.10854784005083       -6.05370443767604       -3.55221604326814
C           78.84548076029778       -7.06965809628949       -2.93631515048219
C           78.84476221357129       -8.38597002900616       -3.47867864272057
N           78.84307861465388       -9.44913261207649       -3.91867415917146
C           79.58278992843708       -6.78408269874932       -1.78335987890896
C           79.58365459624099       -5.50347100140960       -1.26034572359891
C           80.04931799411119       -2.43031679513518       -1.21924183770003
C           81.29723957903852       -2.94221779108546       -1.69757920091399
C           82.25136091890539       -2.05353470510149       -1.32852794168795
N           80.23170180064146       -1.21072407354099       -0.60833703266917
C           81.58258312835169       -0.99758155771340       -0.63813202169672
C           82.25384244786501        0.05449718169588       -0.00854468500722
C           81.57908306961114        1.10607991486862        0.61802878332854
C           82.24478116869808        2.17086514906816        1.29772205461207
C           81.28805825357384        3.06052426966874        1.65758876995327
C           80.04128782194914        2.53883639301229        1.18693775226678
N           80.22728212421744        1.31382483168222        0.58844347334970
C           78.83327383605869        3.21949706953878        1.27170416467690
C           78.83179507580145        4.59644169215941        1.81755697514406
C           78.09617563905420        4.90351311785722        2.96454938266115
C           78.09362786390076        6.18859266920819        3.47649116748722
C           78.82624572712712        7.19679213374655        2.84301984526262
C           78.82193163535652        8.52159612599104        3.36426646708729
N           78.82007838363806        9.59161534228660        3.78748814693619
C           79.56236974111755        6.89491171447252        1.69348045844621
C           79.56545405144624        5.60627894731405        1.19063437352228
C           77.62682860476933        2.66302643562009        0.86712230795561
C           76.37575234520207        3.35752454741313        0.89445756855040
C           75.42201206427055        2.45823271230475        0.55104261807068
C           76.09411446706908        1.22318914983089        0.30268383107945
N           77.44579784168843        1.36158245314152        0.45719847715317
H           74.37722382853693       -2.55823698938137       -0.41464302547634
H           76.27903060812801       -4.32334574334427       -1.15073114334554
H           77.54412014265260       -3.98896664827784       -3.50570822299507
H           77.53885707227825       -6.27079525619402       -4.44818493043911
H           80.15181798891152       -7.57024868744220       -1.30112653318300
H           80.14745570546226       -5.28803943669176       -0.35973941557550
H           81.41767770367203       -3.86168142160067       -2.24669891706965
H           83.31477609804037       -2.09586356348430       -1.50003483572044
H           83.30819216680470        2.21869519003543        1.46773232281143
H           81.40596880031687        3.98595621742481        2.19714649435922
H           77.53611926603230        4.12166617105601        3.46496235634790
H           77.52498334846470        6.41828073278829        4.36995078131841
H           80.12859914024322        7.67477671782214        1.19792984609757
H           80.12797087288907        5.37827098462161        0.29233708512422
H           76.25256972024800        4.39917453314221        1.14182941497423
H           74.35688712428596        2.60296389116902        0.46983536389148
