189
 energy: -351.360511556703 gnorm: 0.000613618585 xtb: 6.5.1 (b24c23e)
Zn          34.19145798234474        0.19942038675443       -0.55519317140898
C           30.78578345811614        0.09438520753989       -0.37245568462111
C           31.37164680185031        1.35198406655468       -0.29532498590485
C           30.65462542781846        2.59010044007589       -0.16635825136562
C           31.57851758016994        3.58209220689590       -0.12984297960859
C           32.87320080863448        2.96043376700511       -0.22648175033853
N           32.71184402524039        1.61023610283447       -0.33326556092251
C           34.09983393946312        3.63401153880609       -0.24127864907149
C           34.05931000192011        5.11237155385302       -0.10235380749543
C           33.56568352944726        5.69814515134715        1.05974653890978
C           33.52666530745245        7.08573412110628        1.19166571632540
C           32.99374649616063        7.64922573987525        2.45716545326343
O           32.98908488474531        8.99011573472515        2.48735769408739
O           32.59650984526785        6.98809924308160        3.38240565807431
C           33.98044007719269        7.89961401240013        0.15368901076815
C           34.47104135629272        7.31884605618303       -1.00519901946364
C           34.51291083210884        5.93753811211685       -1.13394646112952
C           35.35953560644637        3.03932749482744       -0.37126825503605
C           36.61322183363538        3.74046923060428       -0.34791237378932
C           37.59267565797229        2.81094635100557       -0.48547656209490
N           35.60251950229561        1.69921441704309       -0.51080564401688
C           36.95124734479261        1.53278852637415       -0.58148027309321
C           37.62620741230967        0.30495348046010       -0.73132744684381
C           37.01482234249623       -0.96150959529122       -0.82389200505536
C           37.71979091321720       -2.19808647845900       -0.99226711754557
C           36.78987900797049       -3.18536721385486       -1.03947580329017
C           35.50448747824728       -2.56271063336805       -0.88404166955083
N           35.67816683433354       -1.20981937630370       -0.76305562573831
C           34.27734539743157       -3.23489304551694       -0.88142099975450
C           34.31477315305403       -4.71351138528354       -1.01796128186605
C           34.94228926335526       -5.50061212554308       -0.04983750715012
C           34.97808102905428       -6.88252069882326       -0.17554944516596
C           34.39012345724178       -7.49602653952017       -1.26893823058101
C           33.75979103560640       -6.72064382613629       -2.24351868046698
C           33.14231391762586       -7.41459269586914       -3.40064325408764
O           32.56015828842789       -6.58347868258195       -4.27833734228639
O           33.14691706557432       -8.60874330539399       -3.55945451318802
C           33.72215836804988       -5.33342591575572       -2.11587658859770
C           33.01695821593252       -2.63830072992507       -0.75949438507144
C           31.76048250535629       -3.33887637315184       -0.71172879896967
C           30.78687923583274       -2.40543703412526       -0.56947477775728
C           31.43595356809150       -1.12505983384944       -0.51900719484523
N           32.78517984935041       -1.30003037738566       -0.63344974666344
H           29.70246864859632        0.06067940054809       -0.31065743350158
H           29.58052596124053        2.67717648329446       -0.11764902568403
H           31.40389683370582        4.64335070111333       -0.05326866074835
H           33.21944200078269        5.08075412234896        1.88144376079348
H           32.62922850274951        9.27739741622017        3.34222397181991
H           33.94744685065888        8.97744848507047        0.25668905169626
H           34.82252275550049        7.94543913855425       -1.81719335654464
H           34.88725058870560        5.49013908369293       -2.04800662310398
H           36.72892833976062        4.80599771365599       -0.23094236489255
H           38.65792299474587        2.97240551326167       -0.51909419314201
H           38.79068494274541       -2.29489689111007       -1.06549153805626
H           36.95854244897309       -4.24128589805638       -1.17656050385542
H           35.39211871045138       -5.02343867412183        0.81367236684862
H           35.46630895381234       -7.48019383033936        0.58575046315880
H           34.40970302837684       -8.57394866201660       -1.38315834090074
H           32.18260161315191       -7.11323904647578       -4.99908546571723
H           33.24376190489347       -4.73285275292971       -2.88051862368307
H           31.64389882426913       -4.40930971176076       -0.76885195388326
H           29.72160867365175       -2.55894556360518       -0.49642066403850
Zn          56.02438652254384        0.21849603186103       -0.41052365759070
C           59.42700102551296        0.12654458377390       -0.17423710680413
C           58.79155033885467       -1.08183104440721       -0.43296830712814
C           59.45799077964921       -2.33805888741799       -0.63713541706951
C           58.49515771287822       -3.26764401823020       -0.85567909911119
C           57.22651761642715       -2.59233764057217       -0.77420477981337
N           57.44245388269960       -1.26770029263931       -0.52978977637024
C           55.97152341446310       -3.19173490844539       -0.92893432173160
C           55.94075787848859       -4.65533303503005       -1.17568775819659
C           56.45204110809556       -5.55022394785120       -0.24024996221219
C           56.41650712482576       -6.92330638772247       -0.48178972553060
C           56.97108927711265       -7.82754367740337        0.55628889201223
O           56.87779976918696       -9.12776130639589        0.24005583353516
O           57.46267488153115       -7.45565791192372        1.59113932449376
C           55.87040411985235       -7.41133556716550       -1.66891934943307
C           55.36205152035535       -6.52249749038047       -2.60301179110074
C           55.39379087202573       -5.15682321815216       -2.35972119609653
C           54.73778949079444       -2.53241454884021       -0.87542141302538
C           53.45469293645879       -3.17487001151725       -0.94000960165789
C           52.51543656775179       -2.19932774443826       -0.84769368734947
N           54.55281311960767       -1.18389732003884       -0.73147077962057
C           53.21133872614180       -0.95258671763388       -0.72754724139954
C           52.58999829197769        0.30926608157861       -0.63554639560765
C           53.25909691619728        1.53881357230702       -0.46917669447247
C           52.61990416656666        2.82096158562531       -0.44296242094830
C           53.59025431723573        3.74792075163306       -0.23812830610469
C           54.83538327331297        3.03936419869984       -0.13434375919975
N           54.59955497211950        1.70062063068225       -0.29664937756414
C           56.08476130635547        3.63263015004588        0.08080565391096
C           56.10535407355796        5.10070776084339        0.30347186587379
C           55.44110193168530        5.65738060543874        1.39896019285342
C           55.45894026932830        7.02808041109120        1.61636809155761
C           56.13585627345714        7.86101164637674        0.74137793959687
C           56.80168854935102        7.31762934397530       -0.35850362469706
C           57.51136568162777        8.24402863732671       -1.27519658600400
O           58.13150181113860        7.62558779458699       -2.29136982623985
O           57.54423582406861        9.44071305307266       -1.14111066682101
C           56.78722602552251        5.94086683421706       -0.57412064693830
C           57.31422642351561        2.96447881955925        0.10633272014123
C           58.59318330623151        3.57145502845305        0.36634409592489
C           59.52529519650967        2.58919177645359        0.29000975392191
C           58.82741475659490        1.36898975981347       -0.00572672977778
N           57.49056037603104        1.62801793308957       -0.10329105355765
H           60.50941670276455        0.09718329834345       -0.09661313021412
H           60.52756271243397       -2.47723541331074       -0.62032139039929
H           58.62767842508750       -4.31760632862422       -1.06206004494837
H           56.86799919268859       -5.19072913274780        0.69459391661565
H           57.25821777627256       -9.64897568346720        0.96558802075677
H           55.84582957994948       -8.47807897896243       -1.85555604556166
H           54.93827274661231       -6.89419305733342       -3.52914553404334
H           55.00355890631801       -4.46612926598129       -3.09900251445235
H           53.29356044876581       -4.23757961726146       -1.02403715449449
H           51.44371550975879       -2.31219238893577       -0.84551232321921
H           51.56430726788453        2.98853218347068       -0.58162595516042
H           53.47619948816840        4.81842780647958       -0.17961723911904
H           54.91966488658338        5.00570848216464        2.09122730942247
H           54.94269133900761        7.44445669333903        2.47387492830242
H           56.15890040850940        8.93394526535384        0.89509547152960
H           58.56782353311638        8.29798709403509       -2.83933441517135
H           57.29403652767725        5.52336397772770       -1.43611084252921
H           58.75176392845083        4.61456461797940        0.58875807771194
H           60.59220769213859        2.67046574793522        0.42705550706375
C           39.03474274854941        0.34511425895249       -0.78751633086485
C           40.25125867641223        0.37250910276306       -0.82359646267773
C           49.96585166553881        0.36194710632073       -0.76857728985442
C           51.18212346493054        0.34127358352270       -0.71221613402406
Zn          45.10974126828961        0.39705184303554       -0.85233841284206
C           41.66057090592639        0.39244008672971       -0.85198874061497
C           42.30880183442246       -0.70311240385518       -1.45646830151558
C           41.63897601663938       -1.78704688773126       -2.11160426612293
C           42.59735497449388       -2.64338230255170       -2.54808268757451
C           43.86456162688988       -2.09129955081611       -2.15839650304195
N           43.65362045822534       -0.90331083522834       -1.51228230690690
C           45.11126019745200       -2.67068933749521       -2.41852642057497
C           45.10485685996929       -4.00085868112048       -3.07893875181438
C           44.50455226968211       -5.09056852800971       -2.45398968548329
C           44.49192763997753       -6.34179491868639       -3.06881818487449
C           43.83425650060457       -7.46241201257305       -2.35118870075530
O           43.87431992087607       -8.62446854283256       -3.01945618348076
O           43.30659350566774       -7.36336616875882       -1.27286844155805
C           45.08222624122524       -6.51069656198544       -4.32133956252660
C           45.67937619029342       -5.42738791093743       -4.94654420458433
C           45.69274479490214       -4.18249011355842       -4.33283578941942
C           46.35772738229252       -2.11808583812267       -2.10548526501885
C           47.62705861294868       -2.74385369965834       -2.34766323658620
C           48.58363333251653       -1.88893696740531       -1.90388275194093
N           46.56660182162322       -0.90457573031429       -1.50657939247316
C           47.91103930293536       -0.74090957461196       -1.37268255924538
C           48.55655536121549        0.37965026025978       -0.81143080689335
C           47.90847082254558        1.51513139083237       -0.28411181523389
C           48.57992126217240        2.66186442504177        0.25140504739003
C           47.62195345977489        3.53515603207941        0.65393538513992
C           46.35224229737968        2.92082397557818        0.38536545782502
N           46.56292923823145        1.69797643446886       -0.19427526128268
C           45.10463690726534        3.48738640637287        0.66599325838633
C           45.09699298829029        4.82997580761372        1.30163565757238
C           44.52198642471109        5.91571518226050        0.63693467139912
C           44.51299194784375        7.17696500227283        1.21596058334637
C           45.07461430248215        7.36998975498721        2.46689816471128
C           45.64858948679061        6.29247686789182        3.14339202492686
C           46.23722354400964        6.54118425130487        4.48299904262497
O           46.75505522961533        5.44434300872852        5.05520934876465
O           46.26075995789972        7.61635170705921        5.02561474688869
C           45.65977576041225        5.02651058399404        2.56065364537297
C           43.85861060119557        2.90741054094812        0.40313011685383
C           42.59057546550755        3.46397310120852        0.78296664038222
C           41.63386733242457        2.59447504491889        0.36853754181002
C           42.30552960894079        1.50103744584625       -0.26851718046690
N           43.64975501236048        1.70931390511264       -0.22436051313254
H           40.57153158528391       -1.86998306233054       -2.23544010981790
H           42.45951817512310       -3.55995733891848       -3.09852988705867
H           44.05115834575570       -4.98023207858525       -1.47493111967824
H           43.42432187956678       -9.30100459453654       -2.48776415777596
H           45.07017897546377       -7.48286095868251       -4.79901995590359
H           46.13655582908695       -5.55068967917550       -5.92186820433871
H           46.14887748099849       -3.33662941269720       -4.83502753457672
H           47.76860835791718       -3.71653942792046       -2.79057548876895
H           49.65277085396868       -2.02084284729527       -1.93346522565779
H           49.64933181589960        2.78176849891234        0.30859164979506
H           47.76317205071412        4.51143188848726        1.08876840454410
H           44.09197586905214        5.76812029986746       -0.34752780247389
H           44.06688747581068        8.01039188187117        0.68530176066858
H           45.07685249190831        8.34824190864695        2.93417664359779
H           47.11467395623324        5.69057810012577        5.92286962433662
H           46.09386561407246        4.18951009446782        3.09462862202296
H           42.45148707393772        4.39113200223239        1.31527424297850
H           40.56631323081044        2.67681946546320        0.49237530707131
