197
 energy: -394.717025612939 gnorm: 0.000434810823 xtb: 6.5.1 (b24c23e)
Cu          30.68991380679812        0.01345194719771       -0.06379324159269
C           27.28638194293061        0.05121254026372       -0.18139773186327
C           27.92234825181039        1.28265892023179       -0.13722964386946
C           27.24764165420417        2.54867544925250       -0.10103161126065
C           28.20632947804257        3.50546028904094       -0.03767540828390
C           29.47703714643759        2.83254790704769       -0.04492563847350
N           29.27287524462407        1.48354096740517       -0.09911452108901
C           30.72122037522909        3.46359792062327        0.02333936573505
C           30.73707339020938        4.94862386846733        0.07211950926566
C           30.24278061365928        5.69181819579572       -0.99955567231072
C           30.26506176649004        7.08100730840333       -0.95329303028489
O           29.79572355018968        7.81363448423247       -1.99281343052865
C           30.77491863046614        7.73135690074520        0.17151277614882
O           30.78130849310942        9.10168923418455        0.18991745901796
C           31.26373978437670        6.98879949417690        1.24322154175811
O           31.74355454495502        7.69681334131598        2.31390850445774
C           31.25091216489798        5.60026385426169        1.19632105060284
C           31.95274987869034        2.80640365301602        0.04986685199762
C           33.23147899133775        3.45856909768100        0.06245783296086
C           34.17619208657930        2.48402513869997        0.06478908021137
N           32.13976861226457        1.44908356399603        0.03446416206635
C           33.48288204467086        1.23132910229375        0.04726793941361
C           34.11742292044651       -0.02358902551802        0.02982813460145
C           33.45761960556663       -1.26454705581158       -0.01157676879157
C           34.12569629895142       -2.53040780112572       -0.05467867557367
C           33.16187621042279       -3.48461410032329       -0.09936044219745
C           31.89619567209417       -2.80729703807392       -0.07635075797553
N           32.11024577994510       -1.45450232913973       -0.03063660962195
C           30.65141163457009       -3.43750491616768       -0.12621797876698
C           30.63595282553805       -4.92281123590794       -0.15213935589463
C           31.15531317205772       -5.64802270959043        0.92026572961706
C           31.14045466219254       -7.03775741680078        0.89495287804685
O           31.63665985639528       -7.75219593216280        1.93452655801345
C           30.61096807263358       -7.70740810293737       -0.20931541501244
O           30.61396425889942       -9.07792739990020       -0.20878271041665
C           30.09473186873209       -6.98320471448032       -1.28064903335684
O           29.59555539301024       -7.70963474879488       -2.33029270830311
C           30.10156418083704       -5.59404767141941       -1.25513162818620
C           29.41981907423169       -2.77830855146553       -0.15726105371461
C           28.13535262335844       -3.42425494727705       -0.16488139957487
C           27.19630265479032       -2.44591741293254       -0.18708547549340
C           27.89708774398112       -1.19403940476461       -0.18225651063090
N           29.24322223320764       -1.42441410724414       -0.15999890745433
H           26.20148436873505        0.06262724298250       -0.20437385648568
H           26.17637293055873        2.67423732201060       -0.11536445790877
H           28.07236610596743        4.57370095064591        0.01908093941199
H           29.85756182457880        5.19778033779267       -1.88214007884125
H           29.90031749347479        8.75430929091728       -1.77406807840497
H           31.16528976906452        9.38700844121632        1.03434078145703
H           32.05925799687794        7.10116334424742        3.00606121383717
H           31.62257596320720        5.02825358717145        2.03840496318773
H           33.38370010004564        4.52578914999144        0.05488561223304
H           35.24882248861751        2.59431198065419        0.07097807146894
H           35.19591879785977       -2.66189721156561       -0.05615523191645
H           33.29276221057711       -4.55306260640398       -0.15542719202045
H           31.55667781346823       -5.13902143257844        1.78704506320123
H           31.53875158732130       -8.69663811268094        1.72929946999815
H           30.21603579465884       -9.37751443400218       -1.04161349606949
H           29.26179402787657       -7.12585142579770       -3.02397884016674
H           29.71096579092561       -5.03714610833739       -2.09881421667331
H           27.97830723230321       -4.49073738484931       -0.14217780536966
H           26.12255283721807       -2.54885484744752       -0.19707133152796
Cu          62.76531608111102       -0.04306109680530       -0.05096053551513
C           66.16840495746291       -0.06908034081905       -0.18477443652359
C           65.53126697417447       -1.29724433465948       -0.27650616900796
C           66.20480691343188       -2.55971673319258       -0.38443831254414
C           65.24537574722351       -3.51695254550163       -0.42639345219833
C           63.97538238051869       -2.84667627107817       -0.35483311470780
N           64.18057329912274       -1.50015004813732       -0.25747525715510
C           62.73089652819009       -3.48057363451925       -0.35572622766449
C           62.71332491465783       -4.96167641378313       -0.47381411579264
C           63.20379402297294       -5.58100123799261       -1.62314830275353
C           63.17941051100593       -6.96665283211400       -1.73239992608931
O           63.64494072953387       -7.57905784338174       -2.84856502924683
C           62.67156378666909       -7.73799000141049       -0.68585067705333
O           62.66327046700231       -9.10186101496261       -0.82046290827025
C           62.18663723859392       -7.11926359450689        0.46345039032680
O           61.70858730462479       -7.94186583331059        1.44986445102987
C           62.20130664694628       -5.73422752078150        0.57191435173222
C           61.50019482273244       -2.82951124145648       -0.25294709785148
C           60.22094816801966       -3.47786114530718       -0.31306363862983
C           59.27715386432497       -2.50924682259370       -0.19804613395272
N           61.31459092436139       -1.47912663394600       -0.11284855540739
C           59.97159192306532       -1.26340447749512       -0.07295890666488
C           59.33811515107499       -0.01462640075417        0.05637060813166
C           59.99922866808446        1.22201229026196        0.15835312736443
C           59.33255829896447        2.48460271495077        0.26742589346966
C           60.29735815311899        3.43673526536321        0.33069410035285
C           61.56215252449561        2.76051521091890        0.26727446624022
N           61.34680441657665        1.41173100335340        0.15543085411909
C           62.80710400788570        3.39176025432139        0.28334270359898
C           62.82342566970722        4.87009314956945        0.43074894119973
C           62.31891008285226        5.46363250320301        1.58779027864169
C           62.33409282137183        6.84673858737892        1.72562036679642
O           61.85284914215710        7.43340572173270        2.84867400451005
C           62.84824000120519        7.64194850930233        0.70013933340436
O           62.84542065556402        9.00276876038442        0.86159184729399
C           63.34911735109039        7.04910636204631       -0.45589711863208
O           63.83321387897391        7.89428063106080       -1.42010832300213
C           63.34282608081286        5.66643346528675       -0.59319137583615
C           64.03757118703780        2.74015748961467        0.16877247368765
C           65.32237449432550        3.38272512973564        0.22572668141716
C           66.26046323791311        2.41294177854409        0.08814658130705
C           65.55871375066285        1.16855925484788       -0.04348085126833
N           64.21283375688908        1.39508659719166        0.01209841741394
H           67.25317728892529       -0.07839590519936       -0.21318370385278
H           67.27591015786574       -2.68356984668933       -0.41548776649367
H           65.37837942068064       -4.58490398155231       -0.49042616960240
H           63.58757180673211       -4.99189198794772       -2.44602451602463
H           63.53888156491192       -8.53813369842858       -2.73641807774388
H           62.28095240094842       -9.47906496692807       -0.01210667798973
H           61.39462094914217       -7.42655504075097        2.20447553577621
H           61.83235469171805       -5.25936523898389        1.47350631871354
H           60.06781740994273       -4.53709658309522       -0.44240644975092
H           58.20443236644854       -2.61857033001631       -0.20294655569013
H           58.26250784276883        2.61598908338103        0.28669968144944
H           60.16788795060078        4.50445706130241        0.40179051889563
H           61.92879558459564        4.85572262223371        2.39384951642801
H           61.94631017391244        8.39569908995123        2.75404921439516
H           63.22949622601944        9.39913619409859        0.06342532282621
H           64.15484016486833        7.39661808842088       -2.18318833933832
H           63.72180990976803        5.21267775659912       -1.50145571612397
H           65.48003698351746        4.44003087358680        0.36645444344977
H           67.33422087801702        2.51611043994660        0.08321155688428
C           39.31971466385055       -0.04948536914504        0.05137105742656
C           38.09138345607445       -0.04873331274231        0.05359781499464
C           36.74686257582274       -0.04324467902735        0.04967903591250
C           35.52307123463871       -0.03692871718189        0.04265247230156
C           40.66407303477364       -0.04774064717128        0.04574124405654
C           41.88806118412245       -0.04222131511218        0.03641921640107
C           55.36431777842321        0.01108523151069        0.08343013023996
C           54.13600788375010        0.01349609590172        0.08058600399072
C           52.79169472542917        0.01217803535857        0.07352645232626
C           51.56777284827375        0.00824374480826        0.06113775783570
C           56.70879433383585        0.00547179110193        0.07966710149785
C           57.93255507936755       -0.00177743415073        0.07272835964987
Cu          46.72820699767134       -0.01484462044466        0.01690887134756
C           43.29296393727747       -0.03470137171602        0.02621183988087
C           43.93521011853637        1.21214775998447        0.13869724493131
C           43.25120596446986        2.45799254349905        0.30905821153177
C           44.20173380261778        3.42603044325049        0.36283129434405
C           45.47301194564242        2.77633721532401        0.21833069406276
N           45.27770677432859        1.42657904479222        0.09100244344186
C           46.70950225425938        3.42628760449848        0.22845956650523
C           46.69987714367785        4.90843250921257        0.30786713621577
C           47.29912292588693        5.56140740337612        1.38548053643774
C           47.29506620298056        6.95086848500712        1.47364030871356
O           47.86693041888662        7.59691244977667        2.52331456719566
C           46.69157628100553        7.70817945418972        0.46453899342175
O           46.67609209244886        9.06559483081534        0.51823855687817
C           46.09711403321707        7.04698109951435       -0.61346970957387
O           45.52750413031102        7.84746852765713       -1.57027008771163
C           46.09109335481771        5.66176391429378       -0.69764543038250
C           47.95339888054757        2.79362433466384        0.17031904527467
C           49.21879875052801        3.46861284103452        0.11882805100322
C           50.17975608189630        2.51063359666996        0.07395746356744
N           48.16278397936236        1.44015594892979        0.13960525577231
C           49.50804969740804        1.24657043973009        0.08503410113788
C           50.16294470005931        0.00190645988417        0.04639193410302
C           49.52088325499010       -1.24803897218405       -0.01409807891680
C           50.20445449148684       -2.50620346240925       -0.01637869810345
C           49.25419055769663       -3.47157337895859       -0.10219411330637
C           47.98319413944933       -2.80717674540625       -0.15894467038912
N           48.17846891327640       -1.45303623635974       -0.09531899497226
C           46.74702643685638       -3.45087401693967       -0.24490780990465
C           46.75679240375256       -4.93112622454471       -0.37151377941669
C           47.35868276413462       -5.52972332125196       -1.47902030315890
C           47.35595831483374       -6.91372294978495       -1.60617145059187
O           47.92165991661795       -7.50752009762422       -2.68355422421978
C           46.75745430976691       -7.70070046517348       -0.61999802817560
O           46.78255433862595       -9.07859731251018       -0.78315816887181
C           46.18917505107355       -7.10560564778634        0.50442302106522
O           45.63316481214349       -7.87157852585943        1.48700384069581
C           46.17226917710741       -5.71991182969254        0.61940073587992
C           45.50321176541268       -2.81675011569618       -0.22091988438681
C           44.23820553200030       -3.47966268039254       -0.36334188057964
C           43.27691731251678       -2.52479047301487       -0.28186886767159
C           43.94793336727755       -1.27286970602157       -0.10146460381702
N           45.29333288336083       -1.47153861600728       -0.07110148723336
H           42.18128363616686        2.56811238436961        0.38556434877437
H           44.05798759318970        4.48498131382011        0.50452341346740
H           47.75842624938375        4.98370919523730        2.17974396989160
H           48.25075194506540        6.97025142286573        3.15059907167160
H           46.21490352583622        9.39437397010286       -0.27021514144814
H           45.14163517043147        7.31545789254829       -2.27821461557496
H           45.63481369675362        5.17300148674765       -1.55046163209928
H           49.35232361158482        4.53816707706327        0.10368470122133
H           51.24921743734464        2.63967638150262        0.02620304624586
H           51.27416136352947       -2.62599113948684        0.04703974446720
H           49.39687171805100       -4.53995279608679       -0.11221150655059
H           47.80788000540035       -4.92673318297962       -2.25752912424393
H           47.82194038485454       -8.46966964690895       -2.58868548472933
H           45.93232142465606       -9.46828899107533       -0.54133807047810
H           45.94560669955958       -8.78464457742816        1.41720034081041
H           45.72761674239977       -5.26816892711818        1.49665767989447
H           44.10606541301309       -4.53826692696118       -0.51779950660009
H           42.20751174009467       -2.64665842721474       -0.34669140851332
