199
 energy: -404.901433411113 gnorm: 0.000546524231 xtb: 6.5.1 (b24c23e)
Co          34.10098143444092        0.07824332910961        0.02384177854840
C           30.73714746208579        0.21170293484992        0.07155571847774
C           31.38710654338740       -0.36752212801546        1.14093819166401
C           30.72495710294089       -0.95924619905395        2.26364385422748
C           31.68218225808051       -1.22841095070461        3.18264508335469
C           32.92701253977841       -0.78261124234888        2.62731870568317
N           32.74330559410905       -0.32695912886524        1.34693822895221
C           34.11812319755148       -0.69098888448851        3.33578687418690
C           34.13471500971942       -1.03975801766137        4.77377939361490
C           33.31047449142177       -0.36318610550096        5.67679850889739
C           33.33242479178720       -0.68341776634227        7.02411469521613
C           34.18064051692851       -1.69076942251177        7.45504505692698
S           34.22056848955918       -2.09187870196667        9.16150804240348
O           33.86917334525857       -0.95604414803881        9.96220299417551
O           32.97216782093970       -3.13008419085220        9.18798590189266
O           35.41623530327071       -2.81252915205685        9.48486896395307
C           35.00935301360411       -2.37935359880374        6.58439798601073
C           34.98411390157590       -2.04658606136497        5.24016141874956
C           35.29664967603274       -0.27222219244509        2.73383109047385
C           36.53422286597224       -0.06870129562435        3.42528517625706
C           37.48012141597432        0.14608868285688        2.47882989204939
N           35.47323751712126       -0.10829180047955        1.38026168276767
C           36.81788787495598        0.07717290320924        1.21472658955488
C           37.48519657482534        0.01052794051747       -0.01055039205760
C           36.79181629731684       -0.04773749814797       -1.22203337549197
C           37.42382500700344       -0.17098132474763       -2.49722532850938
C           36.46438564218922        0.04733476368009       -3.42933116005463
C           35.25101350871999        0.31621666420040       -2.71759534718337
N           35.45142997525749        0.18000567165189       -1.36374920796065
C           34.08239042635935        0.78335426841191       -3.30217612569114
C           34.07749421674616        1.09446871342841       -4.74895834378244
C           33.18472526108771        0.44890178887702       -5.60804690986642
C           33.17748566169440        0.73953165062698       -6.96245305485260
C           34.06820857256459        1.68456454924353       -7.44463617065745
S           34.05258482354662        2.07283448415794       -9.15469948800916
O           34.51732571346435        3.40995824231365       -9.38272674697119
O           35.22203180046043        1.05691879087277       -9.64338864673282
O           32.81443090133082        1.66642095696230       -9.74907295175761
C           34.96126133980971        2.34580691695976       -6.61690036980392
C           34.96428819415902        2.04307087094074       -5.26556062425450
C           32.92102824135140        0.97543162323128       -2.56458183713456
C           31.69990837057826        1.50957881828215       -3.09391937857986
C           30.75494179129448        1.34787499228987       -2.13793287495090
C           31.40084866054621        0.72552335586701       -1.02212844643831
N           32.74183109796301        0.56583807347415       -1.26855830487303
H           29.65486110571143        0.25877382723812        0.08838580870631
H           29.66246669743115       -1.13273358666021        2.32426588107321
H           31.56880013166048       -1.68190140033239        4.15396894549818
H           32.66456359007567        0.43123372124275        5.32158429190097
H           32.70782465337283       -0.15684382524171        7.73474119390201
H           32.79426044744580       -3.41613929855580       10.09226201222889
H           35.66360970396573       -3.15786327042225        6.95617920136455
H           35.61759866704524       -2.57923998561423        4.54049102149723
H           36.65279511210326       -0.08897559499189        4.49636548313060
H           38.53576971068865        0.32251902491212        2.60794148202990
H           38.46977517576516       -0.38749473730666       -2.64348556594277
H           36.55948135427951        0.03307661929384       -4.50288122408444
H           32.50321365998152       -0.29499986940429       -5.21226635952180
H           32.49018060148166        0.24502928023091       -7.63727417242641
H           35.50875482547337        1.28584359938847      -10.53600123583892
H           35.63497170858720        3.08849044962186       -7.02552490148998
H           35.64591133837752        2.55803742849128       -4.59866913726650
H           31.59315563015117        1.94676748700408       -4.07341838469051
H           29.70958216542784        1.61015185988053       -2.17015311998063
Co          60.84106486849252        0.06979945384129       -0.00355650590293
C           64.20739296255758        0.20858666029709       -0.00464360804136
C           63.55567098101353        0.06941180975723       -1.21130330527942
C           64.21817579013000       -0.05714916847180       -2.47391160803957
C           63.26025769911302        0.02832385336154       -3.42657930960443
C           62.01389409524464        0.22535832121620       -2.74501118303653
N           62.19831436743072        0.17416540270588       -1.38646547428220
C           60.82017552714014        0.55664446355558       -3.37065894996321
C           60.80304403984433        0.76044497072807       -4.83671105715180
C           61.60588852605354        1.74175117234705       -5.42388086523808
C           61.58425378197314        1.93986495775782       -6.79448704516203
C           60.75836205255074        1.14133332562686       -7.56918304954988
S           60.71992932293697        1.39522959165423       -9.30356655169682
O           61.04656351002449        2.75256332541326       -9.62857562057576
O           61.98727988251331        0.46238116460873       -9.70526748384153
O           59.53769319173445        0.82124728343180       -9.87524596506189
C           59.95124302719153        0.16048883738768       -7.01643884906942
C           59.97546032583452       -0.02427063111046       -5.64393669180027
C           59.63944249261115        0.71286537801503       -2.65806074893737
C           58.39828781485794        1.13916744115855       -3.23137579573075
C           57.45332419766974        0.99261474348015       -2.27154160763966
N           59.46578856536378        0.37705626272656       -1.33650156733368
C           58.11907972013964        0.48146324773633       -1.11522493882649
C           57.45515115082664       -0.01333589090194        0.00727651052718
C           58.14801742571311       -0.49391126119122        1.11857510900311
C           57.51528771406364       -1.05949118481842        2.26783488884261
C           58.47633867335773       -1.19646962784986        3.21318074139965
C           59.69206850409728       -0.70052327361450        2.64123378957600
N           59.49154046252316       -0.34155909295103        1.32901294343835
C           60.86504731584893       -0.48975225278175        3.35220411876819
C           60.87344918575252       -0.72701293872751        4.81319223539239
C           61.75764151998385       -1.65221805474077        5.37359785095704
C           61.77133189360357       -1.87298121811235        6.74107675567794
C           60.89525464158879       -1.15573433785633        7.53921796145701
S           60.92072293017052       -1.41286695717553        9.27369103900082
O           60.47683909191804       -0.24290943805222        9.97401089597551
O           59.73676687614725       -2.52070980513275        9.37236485302119
O           62.15422150500732       -2.02292500130005        9.67099900532002
C           60.01016892346330       -0.22815409756757        7.01362701240087
C           60.00089942701934       -0.01961429590288        5.64459599101899
C           62.02765447850143       -0.05225923950580        2.73235117640523
C           63.25236281819453        0.24220695947211        3.41798268448555
C           64.19558694093712        0.44050846179740        2.46751706153877
C           63.54568073892605        0.27780279480371        1.20242659492573
N           62.20413720661838        0.04306702003099        1.37556453332033
H           65.28958445642057        0.25965365337583       -0.00452412370373
H           65.28168924447741       -0.18754817108017       -2.59480902091135
H           63.37344833914631       -0.02926485374848       -4.49703373548348
H           62.23498145134322        2.36434420993601       -4.79849606666986
H           62.19196089371713        2.70624849345245       -7.25895135948193
H           62.15031655988471        0.51078410361923      -10.65511179888707
H           59.31417578984276       -0.44231693153062       -7.65136235153592
H           59.35829435865750       -0.79184877222757       -5.19173318045625
H           58.27737418990895        1.50252909342899       -4.23886414972027
H           56.39602392991684        1.19502270949304       -2.32917773972619
H           56.46756970322176       -1.30592585760204        2.32974688586755
H           58.38123282184030       -1.59277425080164        4.21099905841175
H           62.42800813492875       -2.21023764875301        4.73037872747383
H           62.45268652950911       -2.58726313068959        7.18590169599213
H           59.44664629330713       -2.61467339286475       10.28793475093977
H           59.34784076412751        0.32420569331385        7.66834411554764
H           59.32577688945900        0.71105583092055        5.21462164785167
H           63.36220937497744        0.28630758701213        4.48939902741887
H           65.24235128436263        0.66759919081663        2.59137691023819
C           40.11064334834009       -0.01583863621275       -0.03396847778978
C           38.88865680956727       -0.00551260716715       -0.02459892064253
C           41.45968766073289       -0.02064349689741       -0.03947861978216
C           42.68192228375569       -0.02624379279358       -0.04047610926676
C           53.47540471127841       -0.04943807601558        0.01399690201293
C           52.25435441249341       -0.05079904174071        0.00792757632148
C           54.82722973951746       -0.04354205649156        0.01659172717346
C           56.04796631541346       -0.03348993391769        0.01488988652110
Co          47.46659266059367       -0.05341232157503        0.00962513060215
C           44.08448767040975       -0.02708412324306       -0.03871907272669
C           44.76543743354835        0.81897653715299        0.84210828568000
C           44.12472402008481        1.68039495286225        1.78427575240894
C           45.07888475239918        2.52247298042097        2.25283924090133
C           46.29783142201174        2.17637486882015        1.58644192438904
N           46.10464725734719        1.08223396086689        0.77744920159831
C           47.46587222757132        2.92675396524549        1.62628853399469
C           47.46303190123731        4.21998292650383        2.34430985101202
C           48.35878475909071        4.44864099516263        3.39189239571613
C           48.35572805044383        5.65751828361113        4.06833822042909
C           47.45232176817172        6.63370089249334        3.68159464881488
S           47.45215824235290        8.17390297514347        4.52079633690485
O           47.00756742275327        9.22924612649960        3.65809578923983
O           46.25801180038997        7.87051443858519        5.57835812984056
O           48.67519685124991        8.34844107249361        5.24505476486453
C           46.55652321666280        6.43911519798603        2.64247620258079
C           46.56319654578272        5.22451811772925        1.97744794458519
C           48.63479531508203        2.49576680162208        1.01187016675968
C           49.85655087521334        3.24132673747243        0.96636882449877
C           50.81190652673948        2.39737477413015        0.50517496155235
N           48.82510229110125        1.23619755159660        0.49545340844676
C           50.16905669565092        1.14535182323673        0.25904149451152
C           50.84859428098098       -0.04676906587754       -0.00161970368917
C           50.16461705746990       -1.23394271801258       -0.27465123673437
C           50.79961145538978       -2.49113049595919       -0.51296023093915
C           49.84499774744888       -3.32361803150325       -0.99737620739210
C           48.63164280839985       -2.56649385322949       -1.06207949516527
N           48.82675871931381       -1.30787401007103       -0.54726374847482
C           47.46720394116783       -2.98392983051639       -1.69513898212518
C           47.46500030740717       -4.27255231903998       -2.42143587726845
C           48.37202708495801       -4.49881380866990       -3.45978317255207
C           48.36934637641848       -5.70213075388278       -4.14606185538528
C           47.45516397454334       -6.67550314344875       -3.77801139963840
S           47.45349974087669       -8.20806532551153       -4.63092556135305
O           46.99336089694917       -9.26829144476143       -3.78239043675493
O           46.27184047536278       -7.88723617133600       -5.69762820129612
O           48.68241305780220       -8.38449563049963       -5.34477782249001
C           46.54933693346549       -6.48406723077405       -2.74702324408745
C           46.55583267250732       -5.27494531371761       -2.07211114806183
C           46.30350647656810       -2.22727175147241       -1.66139434579162
C           45.08683193270733       -2.56868609334745       -2.33499237828231
C           44.13133651813440       -1.72998058882803       -1.86412959759571
C           44.76957689002833       -0.87244360094325       -0.91642384646240
N           46.11037787910661       -1.12921882565168       -0.85621123656121
H           43.07692096010754        1.64251619090139        2.03498077731671
H           44.97619990438076        3.30961419697171        2.98196273838690
H           49.04964488212190        3.66740690659965        3.68665989201221
H           49.04448238280859        5.84482623669888        4.88251324173180
H           45.95260378248982        8.69294169196664        5.98049248521888
H           45.87255962108753        7.22892304202403        2.35819006125585
H           45.87934985404592        5.05621904165919        1.15371237248862
H           49.96032060985141        4.27416332083880        1.25640477178749
H           51.86197856261802        2.58669918134348        0.35139751371797
H           51.84422147791700       -2.69225775920498       -0.33824486311685
H           49.94408933262022       -4.35659608292153       -1.28871571161605
H           49.07136634458817       -3.71970753325890       -3.73976149609877
H           49.06631138631744       -5.88720872164368       -4.95371572409666
H           45.96853240144036       -8.70342859998293       -6.11373868308417
H           45.85759594452146       -7.27201256032094       -2.47676403249664
H           45.86407176747127       -5.10946145475803       -1.25444078355542
H           44.98587882408199       -3.35338755664683       -3.06694570666992
H           43.08397304798940       -1.69098502278913       -2.11658445267972
