177
 energy: -317.034597918739 gnorm: 0.000652992692 xtb: 6.5.1 (b24c23e)
Fe          33.74968060333483       -0.05259764157186       -0.14627231228578
C           30.38648184328898       -0.05577123766295       -0.52097173465401
C           31.01499344553930       -1.27256571625079       -0.34956637120115
C           30.31992538027548       -2.52089836885468       -0.26118787762613
C           31.26416852758465       -3.48137423781538       -0.12047140942053
C           32.53688750605648       -2.82040455646131       -0.15741450382337
N           32.36753254246559       -1.46517559519709       -0.25185154668455
C           33.76044038374249       -3.48264189731340       -0.17974144115159
C           33.77553031279997       -4.96371543069808       -0.16060387214009
C           33.15215300855523       -5.69888363635947       -1.16948676364432
C           33.17531565761336       -7.08480379681018       -1.15323302109435
C           33.82090329830837       -7.75353608572963       -0.11568795224936
O           33.86525654333517       -9.10949286987182       -0.05961574721726
C           34.44584684314869       -7.03122323538898        0.89941219418983
C           34.42516693699314       -5.64835973059914        0.86991277143244
C           34.97415920343351       -2.81159309540033       -0.25439465252113
C           36.23851707977541       -3.46287257123879       -0.42667361823413
C           37.18236445256284       -2.49074951231894       -0.42624517191225
N           35.14703817283844       -1.45114292511567       -0.17654305822438
C           36.49414487715073       -1.25092034884197       -0.24583315059194
C           37.15000558729716       -0.03220143041629       -0.03371540883346
C           36.46909205906895        1.16643645625227        0.21409378371135
C           37.13167045765641        2.40047051135315        0.49907943602286
C           36.16786800890406        3.34798700113690        0.58951982890042
C           34.91740714702156        2.69057060045574        0.34850749821344
N           35.11991422542707        1.34578965912551        0.14522152167577
C           33.71065133632872        3.35954768226076        0.19876197973386
C           33.69489989929687        4.83340037124813        0.36350810591065
C           33.98726987941557        5.41148735106507        1.60086255931449
C           33.97512866914802        6.78588503595209        1.76055471072233
C           33.67625587126896        7.60559761332259        0.67371848347558
O           33.67786986078356        8.95026155315016        0.86432212564946
C           33.38838219331267        7.04290275938326       -0.56746765718582
C           33.39573099521140        5.66450012319027       -0.71609500427944
C           32.52428918670674        2.71105185760252       -0.13188393817034
C           31.27176794372343        3.38046056841232       -0.33490492690500
C           30.34699247685915        2.42004036418224       -0.57031910475426
C           31.02970336400433        1.16432680042550       -0.48536257387296
N           32.36421389208244        1.35646581054625       -0.23927761447338
H           29.31017278466659       -0.05644588760958       -0.65264960409685
H           29.24715601962614       -2.62781015099817       -0.29174498006017
H           31.12237148778227       -4.54338025447513       -0.00216014554865
H           32.66306301075649       -5.18035681534755       -1.98656357391704
H           32.69605589211356       -7.65102650582591       -1.94468226616751
H           33.39910587202179       -9.50851854520938       -0.80652138302395
H           34.94146427583805       -7.56428409837722        1.70133508290499
H           34.90294599073408       -5.08621672327894        1.66447548310102
H           36.37569127524333       -4.52528449996564       -0.54584865897081
H           38.25098112294461       -2.59270009761556       -0.52463678238270
H           38.19829211972937        2.51582954174843        0.60363585150766
H           36.28613712735103        4.40284150964871        0.77634597737636
H           34.20998657476432        4.77318031799294        2.44850365599711
H           34.19462412321145        7.23744579408194        2.72013750198510
H           33.44942749111108        9.42164414858871        0.05192885321533
H           33.16198705489595        7.68469035978219       -1.41218369974443
H           33.18571340986939        5.22835635882763       -1.68633955199021
H           31.12697017534455        4.44762462364438       -0.28935949247747
H           29.29165316986846        2.53124389695093       -0.76286722845591
Fe          55.40543142322443        0.00768005251928       -0.22737619496950
C           58.72729371917847       -0.08627864528742       -0.83715007453641
C           58.13891906216256        1.15308395049125       -0.68076712970274
C           58.86791661740484        2.38502916846666       -0.69454735351897
C           57.96658610135897        3.37157564415822       -0.47429769158234
C           56.68088405599423        2.74335202827516       -0.37268593260896
N           56.80786989015161        1.38262631498781       -0.45564994125337
C           55.47556223060445        3.43479032096593       -0.30068820682178
C           55.49126098794980        4.91576839511284       -0.29878326071097
C           56.04925424724669        5.62818610252944       -1.36087890488370
C           56.04647831924471        7.01438009389127       -1.36248261536903
C           55.48717990186405        7.70613704372128       -0.29049982782191
O           55.46488268608946        9.06290668542556       -0.25092508012941
C           54.92753062727684        7.00648102609597        0.77739229587737
C           54.92659269748530        5.62330789462372        0.76587187084750
C           54.24338026014127        2.79254679535602       -0.29620649066465
C           52.98985236169504        3.47198546700767       -0.43223582637008
C           52.02675747850750        2.51882365775292       -0.42642945383082
N           54.04215130747541        1.43688143684335       -0.21297164761568
C           52.69018394945350        1.26439176818557       -0.26054528373327
C           52.01200089483503        0.05240271213555       -0.07576572722093
C           52.67536557258325       -1.15350927929902        0.19159735088757
C           51.99845257617868       -2.35627831924168        0.56281480851529
C           52.95387621787320       -3.29579916568737        0.76247521464527
C           54.21311845563026       -2.66851767164726        0.49016169380434
N           54.02401209468243       -1.34504196229008        0.16914682143925
C           55.41375723234145       -3.35956445437716        0.40584945740408
C           55.41712365203877       -4.80693544152602        0.72786623348689
C           55.14367372583140       -5.23897421583983        2.02767314036825
C           55.14695522333193       -6.58659597781024        2.34071106799700
C           55.41532041865383       -7.52633852776162        1.34690255107321
O           55.40699442694493       -8.84061640226079        1.68767392737844
C           55.68013440631581       -7.10992662207383        0.04439377860851
C           55.68322290501185       -5.75692357104251       -0.25810026434172
C           56.59637129599158       -2.76342763028570       -0.02368775915466
C           57.82767436576854       -3.46916161792334       -0.23235984137193
C           58.73898311431476       -2.55544895007202       -0.64251571213445
C           58.07498762217882       -1.28672079402254       -0.64346197970387
N           56.76138137398831       -1.43027519980923       -0.28003738734910
H           59.78772489449227       -0.11746705845057       -1.06156481870837
H           59.93438235117849        2.46369361166181       -0.83469991578633
H           58.14569736490134        4.43111397157755       -0.38949816163663
H           56.46800179156263        5.09209097421162       -2.20523445459389
H           56.47360727684934        7.56294627820826       -2.19514711486377
H           55.87658811828396        9.44561146786766       -1.03735104934068
H           54.49756594606492        7.55740132496921        1.60470709289676
H           54.49792509887982        5.07818249206291        1.59935036356391
H           52.87225495653269        4.53753899114763       -0.54349687771094
H           50.96053635703124        2.64324543844933       -0.51977306050151
H           50.93006559677929       -2.45355280822784        0.66649151580425
H           52.82595520394228       -4.32875379180021        1.04221091058120
H           54.94258662596869       -4.50634268327172        2.80122472676949
H           54.94352216042886       -6.92532974351382        3.34904392863198
H           55.60472057257517       -9.40340223914591        0.92708375466718
H           55.88045317645015       -7.84526380812752       -0.72753320943279
H           55.87436443184259       -5.43484553758779       -1.27570452746097
H           57.96794519932462       -4.52667855006412       -0.07804322835958
H           59.77643800587509       -2.70384982460462       -0.89720364932507
C           38.55343887397035       -0.01888396775768       -0.03861328450949
C           39.77227631832705       -0.01431968970268       -0.04545853913883
C           49.38940594271611        0.05299045526308       -0.10556571554008
C           50.60893162483116        0.05393331336963       -0.09166825208434
Fe          44.58041769110807        0.01939639924992       -0.08438271878239
C           41.17459439062219       -0.00665736271963       -0.05410241630746
C           41.84698999530604        0.98331812339174        0.67540921329105
C           41.19134121723548        1.94635828943686        1.50114088795264
C           42.14624212556267        2.81443040266987        1.91951834176005
C           43.37960426038720        2.38250721232128        1.33513269414422
N           43.18768399937941        1.22385670702651        0.62427086693083
C           44.57248964130241        3.09623234920568        1.39500806008980
C           44.57588914213578        4.42051797441080        2.05369687100164
C           45.43030058928769        4.67342751943140        3.13094385402069
C           45.43373664017676        5.90546116639821        3.75898812231974
C           44.58348418396545        6.91406097689980        3.30802610523648
O           44.61612437021948        8.11192497722578        3.94404462355288
C           43.73069030842126        6.67892847297340        2.23147555719759
C           43.72638365728668        5.43772975939189        1.61519676141621
C           45.76428009943970        2.61309266740046        0.86469336858516
C           46.99335791878671        3.34643016604144        0.83959383731388
C           47.95152731222505        2.48627431372282        0.41387945841247
N           45.96282250175308        1.33899768047128        0.39225866643339
C           47.30359605229867        1.23771297824827        0.16777313431669
C           47.98730188601445        0.04469929132554       -0.10928750886878
C           47.31944220839461       -1.15747856011117       -0.38397452138828
C           47.98326237178583       -2.39480638126393       -0.64566253282955
C           47.03149458068378       -3.26783548126544       -1.05987592841730
C           45.79036246209811       -2.55421577508209       -1.06074933911237
N           45.97699269110812       -1.27847035062323       -0.58894218042217
C           44.59521419503942       -3.05654196993564       -1.56561927556605
C           44.60527304206757       -4.38226035527455       -2.22185736076801
C           43.78539107429620       -5.41273448833961       -1.75872320041026
C           43.79577183458775       -6.65581198801163       -2.37116944234642
C           44.62457556774446       -6.87945078439631       -3.46858800929068
O           44.66215035432803       -8.07911420095696       -4.10150866874961
C           45.44470004430805       -5.85750387037215       -3.94453213372577
C           45.43587478114831       -4.62357783580800       -3.32008546746906
C           43.39188620026405       -2.36315340502493       -1.48025688410094
C           42.15402301436213       -2.81757507591662       -2.03806409304564
C           41.19326292553453       -1.96447593645462       -1.60287610508988
C           41.84918529623303       -0.98808832615527       -0.79289810393302
N           43.19455798169751       -1.20639402596906       -0.76770706234455
H           40.13806578046121        1.94569523830281        1.73034125635337
H           42.03280413941127        3.66657517218209        2.56961162869357
H           46.08125446425552        3.88483550884871        3.49138483479188
H           46.08763758038656        6.10026194699936        4.59998712343958
H           43.98746422855158        8.73582660234973        3.55670473231053
H           43.07514314398112        7.46845053764527        1.88006350616405
H           43.07247902194234        5.26153205438547        0.76839750325304
H           47.10193818649010        4.38401938253208        1.11012824340391
H           49.00504603797103        2.66955885357446        0.28213846371525
H           49.04210636024563       -2.56128460002569       -0.53295437862464
H           47.15140951115428       -4.30244837657411       -1.33715630996668
H           43.15017158524292       -5.24508098511971       -0.89613078064470
H           43.16356268075893       -7.45550506240334       -2.00052160965561
H           44.05515163873315       -8.71238016637930       -3.69524494788507
H           46.07982577704981       -6.04369573536952       -4.80173291083193
H           46.06345057587590       -3.82492158846303       -3.69935126507547
H           42.04207728420567       -3.67358459072356       -2.68334374385253
H           40.13536935566687       -1.98277834338873       -1.80918948000670
