122
 energy: -240.272201479141 gnorm: 0.000441951822 xtb: 6.5.1 (b24c23e)
Co          17.25623543928313       -0.05345667059421       -0.02007289079472
C           13.88511502648891       -0.06201871110221       -0.16042725222085
C           14.54210568400739       -1.26974584874561       -0.06066997129560
C           13.88163671449996       -2.53604073646985        0.03391606894285
C           14.84147714780769       -3.48387161902299       -0.07823803468258
C           16.08566309258784       -2.79380330149618       -0.25807280160700
N           15.89889921678673       -1.43775452995638       -0.17923520625284
C           17.28324954008080       -3.41228076436329       -0.59212324398853
C           17.29713071437002       -4.87192329859300       -0.83158012118150
C           18.11122199068599       -5.70568614764208       -0.05887967648894
C           18.12716942871450       -7.07114785308746       -0.27765800891556
C           17.32728387297189       -7.60671463146986       -1.28299538492020
N           17.34296519508015       -9.04025308307293       -1.51949439724250
O           16.63624496936060       -9.46790278004204       -2.39552276602502
O           18.06020033428874       -9.71164825243203       -0.82358755208153
C           16.51268325597325       -6.79376803988924       -2.06581850390378
C           16.49868828155768       -5.43037623935193       -1.83436340458457
C           18.46714512197638       -2.69949029691541       -0.71874966865121
C           19.71185388437934       -3.27284349998151       -1.13434238846551
C           20.65595206908377       -2.31510224854817       -0.97125929558564
N           18.63817437030398       -1.37923161646021       -0.37379141773477
C           19.98550272853446       -1.16052988762881       -0.46267262208143
C           20.64882250416953       -0.02450548439017        0.00307365484673
C           19.95652277125702        1.09495853943073        0.46864851332494
C           20.59305190649923        2.24434233992200        1.02891321553978
C           19.62783954907669        3.18017385084807        1.19822467810035
C           18.40593674321694        2.60172291069967        0.72606051674332
N           18.61022926918344        1.29683323776450        0.34203116786371
C           17.21880792420854        3.30248569146825        0.56646876969657
C           17.19623959717163        4.75419038322950        0.84800547686473
C           16.32455936019436        5.27114173447572        1.81154761648663
C           16.29706790038644        6.62759263876692        2.07916512236424
C           17.14499169299068        7.47593860792426        1.37301607187315
N           17.11552924571530        8.90277623852372        1.64567148998469
O           16.34043158496410        9.29442062130672        2.47978272017882
O           17.86636608240131        9.60513261169620        1.01930411615426
C           18.01916604095099        6.98204721581031        0.40908718015063
C           18.04291596104375        5.62318702097544        0.15292529459948
C           16.04992768331847        2.68031078141941        0.14684599148937
C           14.81446699180493        3.36494237436835       -0.10189473848487
C           13.87554375052897        2.41323891110600       -0.31235694193262
C           14.53944483979675        1.14993881715894       -0.20054169717243
N           15.88443364495725        1.32607426303848        0.01240092879173
H           12.80245920550684       -0.06527167197971       -0.20115013734353
H           12.81881421372912       -2.66231698672820        0.16415289786459
H           14.73089994298804       -4.55562699756458       -0.04709445423893
H           18.72100532670400       -5.27706873533557        0.72789923946266
H           18.74920291465180       -7.72643641627481        0.32015480897907
H           15.90329051526117       -7.23527120445766       -2.84519113412014
H           15.87814721762764       -4.78496853650233       -2.44499887553604
H           19.83593808175771       -4.27812122555814       -1.50255929245898
H           21.71436812559110       -2.37245354916052       -1.16739783144193
H           21.64416686472655        2.31193793067313        1.25833313789188
H           19.72408474098352        4.17319162365021        1.60593863654068
H           15.67778667129393        4.59852792306635        2.36271547918498
H           15.62919586539560        7.03680631288703        2.82761590004825
H           18.66609305299470        7.66428820809434       -0.12920223966056
H           18.70917709831773        5.22793455652135       -0.60498344242443
H           14.69530209230361        4.43616694500494       -0.11102422522749
H           12.82346536099998        2.53435315980731       -0.51469838757081
Co          28.07180520935079        0.05706535510781        0.00151197038829
C           31.44290032439950        0.11769783696900       -0.12547165810720
C           30.78588973772944        1.19985284400963        0.41993819156734
C           31.44632290321728        2.33824495819842        0.98257400716243
C           30.48647012478929        3.25897001202487        1.23398140625082
C           29.24231731933541        2.68672969137706        0.80835624366418
N           29.42910406326530        1.40007949641657        0.37292286329620
C           28.04474542196803        3.38536111372877        0.73046691100419
C           28.03090381253858        4.82828660697799        1.05580513135219
C           27.21651822111017        5.31158379531305        2.08448409442098
C           27.20063347218849        6.65945458028586        2.39367415314051
C           28.00099075948050        7.53279336471513        1.66287876120718
N           27.98563386761455        8.95037800483549        1.98136034098132
O           28.69386165490989        9.67499233324148        1.33088852007744
O           27.26665552292038        9.31222127263790        2.87670022731502
C           28.81584667344559        7.07260175530073        0.63258912638558
C           28.82969491514313        5.72191420661136        0.33585747585601
C           26.86087417029636        2.77204593984383        0.34573146443506
C           25.61616032011702        3.45936856375256        0.17534893998943
C           24.67208173785282        2.51032390529545       -0.03254984231058
N           26.68986356608320        1.41875382523188        0.17053397698871
C           25.34253991506941        1.24929872667670        0.00612008405926
C           24.67923971835800        0.02150479318366        0.01202284577038
C           25.37156513604556       -1.19083883073951        0.02398871269032
C           24.73508842055169       -2.46645458984656        0.11259743087657
C           25.70032570207169       -3.39747652753616       -0.08131068300679
C           26.92218044246218       -2.68416667717397       -0.30233138757858
N           26.71784611663227       -1.33048208791951       -0.16917709412998
C           28.10928502983797       -3.27393595463491       -0.71316637438657
C           28.13186859740193       -4.72528970214224       -0.99647017987156
C           29.00394705995439       -5.56572158128989       -0.29743623889786
C           29.03149308178651       -6.92354738938217       -0.55797303033230
C           28.18321322669853       -7.44532507364723       -1.53032714181052
N           28.21283101861254       -8.87027373520146       -1.81268419761298
O           28.98830456864968       -9.54598330617894       -1.18664579052373
O           27.46099688607699       -9.28677974436390       -2.65570411246178
C           27.30860225449217       -6.62614593183048       -2.23833177755984
C           27.28483471027583       -5.27037195135845       -1.96630561793570
C           29.27812261862431       -2.53975823356244       -0.86902246585824
C           30.51357007487332       -3.08109081318649       -1.35646093278361
C           31.45247924667479       -2.11989877339675       -1.19468481626703
C           30.78858580535706       -0.99075804255624       -0.61720807572667
N           29.44360312095675       -1.23392504009035       -0.48582979450555
H           32.52555599678513        0.13601236954585       -0.16198134246976
H           32.50913300255078        2.40645892658270        1.15074247709511
H           30.59702609899475        4.24082011924598        1.66479851765755
H           26.60645430812368        4.61929661166711        2.65293485766691
H           26.57842242529754        7.04283797543729        3.19341488699336
H           29.42559021827705        7.77404893975692        0.07590214796165
H           29.45040997463408        5.35250592446180       -0.47207449724272
H           25.49205169318619        4.52937029944037        0.21084213806498
H           23.61367185084054        2.63700848650327       -0.19292915315320
H           23.68399159753593       -2.61517168129867        0.30002131841924
H           25.60411600494719       -4.47092146129996       -0.07554612796912
H           29.65100975742493       -5.14877745185031        0.46544040605323
H           29.69967625008318       -7.58346477788637       -0.01785629693916
H           26.66136550531899       -7.05685809999173       -2.99285045298544
H           26.61829097206313       -4.61985298295179       -2.52046952286407
H           30.63274824443044       -4.07068161969985       -1.76672153092155
H           32.50454107901505       -2.15626146163865       -1.42775573147826
C           22.05591528028960       -0.01003331305226        0.01029190064137
C           23.27214777761762        0.00533861641724        0.01330665072311
