266
 energy: -456.554653702209 gnorm: 0.000528459896 xtb: 6.5.1 (b24c23e)
C           51.81333066613595        0.02084189579208       -0.02044056519527
C           52.42146785761112       -1.20996869021519       -0.23151406037267
C           51.79170635359529       -2.46881498387513       -0.45123911835287
C           52.77223293182167       -3.40580930896070       -0.61802906232572
C           54.03178751130951       -2.74956234126668       -0.50457929954994
N           53.76884647291692       -1.43075907994237       -0.27079621403721
C           55.29275902235688       -3.32336240032858       -0.61401276557054
C           56.52244371222665       -2.68975812558139       -0.50369900640887
C           57.78850004790810       -3.38604117532400       -0.64699810469537
C           58.75380830898487       -2.45931766930986       -0.47630005376566
N           56.73882630848150       -1.36999215216583       -0.25311100573899
C           58.07544273840919       -1.20053154567844       -0.22661650190219
C           58.74946489620525        0.01745245429960       -0.00184853881739
C           58.11474381569094        1.25545477458181        0.21330993655325
C           58.73569662245357        2.51000074980052        0.45658628699982
C           57.75079314762619        3.44614925981698        0.61168713628914
C           56.49697593406358        2.78874973410093        0.47205916224370
N           56.76896942989077        1.46876196778565        0.23318411865341
C           55.23730892734697        3.36833446938961        0.56340409331667
C           54.00658310702254        2.73540919178373        0.44534655636698
C           52.73277569619707        3.42874648039177        0.56118830205513
C           51.77413582225923        2.49465436951318        0.39987892152828
C           52.46325951683679        1.23212485557840        0.18536207217120
N           53.80442342248099        1.41624047367336        0.21819959349616
H           50.72855938509908        0.02852536504286       -0.01900589505681
H           50.72445933278329       -2.62173611399210       -0.47668498975922
H           52.64855306097360       -4.46097208045637       -0.80376589540366
H           54.47156270673563       -0.70995222002915       -0.14522862471480
H           55.30894560978778       -4.39078537390966       -0.81005258180446
H           57.89139023998331       -4.43994497542596       -0.85285053996807
H           59.82347683587283       -2.58658431029594       -0.51746825793525
H           59.80094038557615        2.66581280485892        0.50981271228355
H           57.87081507852458        4.49955093604362        0.80853889013767
H           56.06936125587457        0.74694808755622        0.09455937442398
H           55.22453423772274        4.43693346443925        0.75278194207311
H           52.62346908364754        4.48678363046621        0.74194375963271
H           50.70205084195517        2.61419217868127        0.41860964236751
C          124.96677347570898        0.01567867502544        0.01357981521378
C          124.35374600600514        1.23308754322475       -0.25382828314511
C          124.97849012515155        2.48504878313031       -0.52158908137769
C          123.99428600571157        3.40940707903844       -0.73192828210515
C          122.73745089159918        2.75179425031717       -0.59894196774130
N          123.00555523126960        1.44498395882241       -0.31014676637013
C          121.47401460820562        3.31372423881313       -0.73802690043359
C          120.24756434831220        2.67747883723675       -0.60925246249061
C          118.97795744278514        3.35939948958154       -0.78647673835153
C          118.01748239162727        2.43393152452158       -0.58466617614139
N          120.03809512585286        1.36712878516011       -0.30824145548556
C          118.70255527446497        1.19025944923281       -0.28230897150354
C          118.03441389838164       -0.02215411676057       -0.01479309469738
C          118.67327419752044       -1.24755229493656        0.25206708634408
C          118.05649885098778       -2.49487614338077        0.53989521508429
C          119.04503816728763       -3.41754660135823        0.74482222886093
C          120.29669165749370       -2.75879663668672        0.59155415721057
N          120.01988755784528       -1.45182041912090        0.29409571651263
C          121.55897303367347       -3.32498704444814        0.72160883118541
C          122.78650750090675       -2.68903964444611        0.58642723065116
C          124.06370450262298       -3.36783098560886        0.74375301542250
C          125.01768022656753       -2.43597401378243        0.54598708815476
C          124.32237791191648       -1.18904789738312        0.26900539138182
N          122.98208471265340       -1.38029113278303        0.30078797232378
H          126.05155671707313        0.01412684824833        0.02188464640902
H          126.04506579882744        2.64254274495621       -0.54715302291049
H          124.11399589559271        4.45675084283195       -0.95970564239502
H          122.30565095519657        0.72640618360430       -0.15882899690801
H          121.45288080784150        4.37240018041681       -0.97638059676118
H          118.86973741431632        4.40374310438148       -1.03406852638557
H          116.94719815644477        2.55228566267536       -0.63665277152871
H          116.99145074055019       -2.65486409282974        0.58686325338914
H          118.92896427296625       -4.46256578508227        0.98423739050732
H          120.71680994886562       -0.73196788108481        0.13351173070477
H          121.57714287034302       -4.38392455929907        0.95882222606916
H          124.17814994221386       -4.41561817608883        0.97428052367618
H          126.09033138884165       -2.54741470241191        0.57774330414110
C           60.15754724000595        0.01184916065426        0.00749546725828
C           61.37505151920252        0.00691684795498        0.01778058540800
C           71.20431885073522        0.00180548884173       -0.00386132071123
C           72.42222883593735        0.00694672953239       -0.00099552281671
C           82.24549506453462        0.00133064896949        0.03037930538060
C           83.46323247171448        0.00099057193317        0.02696173515090
C           93.29805379858108       -0.01239593332573       -0.02395558982017
C           94.51662261888052       -0.01376249058031       -0.02477850204484
C          104.36062524514011        0.00060785266628        0.00528311053150
C          105.57889764038089       -0.00105113514527        0.00448713893449
C          115.40893153603402       -0.02505775387350       -0.00057578964991
C          116.62626701380047       -0.02256135106153       -0.01046326608941
C           62.78236746595696        0.00879434247949        0.02095114622317
C           63.42393528837065        1.23898514572454       -0.22089859689031
C           62.81594253318287        2.49394755718983       -0.48694714388415
C           63.81196363434353        3.41463860884458       -0.66886567850260
C           65.05763823682517        2.74540312813587       -0.52260307538687
N           64.77209044324002        1.43532826645290       -0.25223267651939
C           66.32311741611929        3.31056941846517       -0.64063975403002
C           67.55545699113952        2.68714955060184       -0.52156679470823
C           68.81638971687899        3.38851066817464       -0.68346673262293
C           69.78846648694002        2.46953757923150       -0.50758151933274
N           67.78190894983184        1.37229921345376       -0.25279423200609
C           69.11912002008299        1.21118255942631       -0.23594663198665
C           69.79787136020349       -0.00295179401639       -0.00180260868032
C           69.15675262034674       -1.23349182991237        0.23904210685347
C           69.76481712570290       -2.48906660389665        0.50300314985337
C           68.76873119695141       -3.40844948239435        0.68945308478564
C           67.52280579239866       -2.73810634900058        0.54787871454293
N           67.80865295336686       -1.42836305499708        0.27545543636687
C           66.25745376592458       -3.30145709122535        0.67159646011389
C           65.02484055192978       -2.67748156031594        0.55373470191651
C           63.76407292177251       -3.37842361283582        0.72003313721382
C           62.79157453955036       -2.46086368277971        0.54023213584763
C           63.46030498468799       -1.20357174756902        0.26213722940807
N           64.79830335544291       -1.36418990188216        0.27989663365494
H           61.75239068175196        2.66154629293276       -0.53717488038937
H           63.70332968662492        4.46478144676591       -0.88842492485854
H           65.45993837115333        0.70446557931878       -0.10185993503863
H           66.33685769262951        4.37382967341273       -0.85969407000759
H           68.91169866677873        4.44006218574816       -0.90448093224877
H           70.85728079165318        2.60173286272069       -0.55885287488252
H           70.82830816216155       -2.65772234978378        0.54865342018337
H           68.87717934495568       -4.45859572795513        0.90898492448802
H           67.12071321227154       -0.69719540985096        0.12737194369456
H           66.24318131401236       -4.36417332873317        0.89318406640242
H           63.66940532633950       -4.42893569738491        0.94613074318371
H           61.72302796006893       -2.59319736647484        0.59292991953526
C           73.82869262984568        0.01126864470541        0.00323480715109
C           74.46964264149783        1.24700299570615        0.21730749957816
C           73.86099668868870        2.50743500682316        0.45491566627759
C           74.85669614462338        3.43193697697742        0.61747945367645
C           76.10273240316127        2.76000292756406        0.48662533125076
N           75.81764801464081        1.44392335131796        0.24599124732746
C           77.36827694737202        3.32784528169617        0.58852859704778
C           78.60015380760936        2.70123146351008        0.48004846291189
C           79.86220162219547        3.40639719074839        0.61525399857301
C           80.83320188266408        2.48269039381139        0.45893693025952
N           78.82459492474916        1.37946545802862        0.24652653575081
C           80.16175615933128        1.21733222438034        0.22749748065263
C           80.83905158101348       -0.00379201096751        0.03056078952821
C           80.19892196146805       -1.24205846668854       -0.16900447847605
C           80.80834290689853       -2.50460783834462       -0.39376105068401
C           79.81284204912291       -3.42971475004792       -0.55405523906518
C           78.56646651848823       -2.75610756081036       -0.43450011333380
N           78.85106556955158       -1.43872618107850       -0.20069045594212
C           77.30087187419466       -3.32201963828746       -0.54441611585570
C           76.06915569770727       -2.69301775295147       -0.44743764284301
C           74.80773675578077       -3.39605790624829       -0.59738891538327
C           73.83653994404926       -2.47166524789028       -0.44665412387434
C           74.50682452134372       -1.20829537626906       -0.20236639941295
N           75.84404268180194       -1.37176096865454       -0.21130944123588
H           72.79746093053672        2.67594182894558        0.50033280102233
H           74.74775031319480        4.48658753059962        0.81389751199684
H           76.50618593119601        0.71058035200231        0.11205292994224
H           77.38296500520842        4.39614180515583        0.78139552972738
H           79.95883022799951        4.46372425710948        0.80616176205889
H           81.90251579135408        2.61568456628281        0.49916441569970
H           81.87216270188678       -2.67373706056657       -0.43238323619142
H           79.92213864119840       -4.48581211842698       -0.74233558178362
H           78.16237660506542       -0.70400671682248       -0.07534376068701
H           77.28569055787329       -4.39061068545834       -0.73555703391437
H           74.71154365526687       -4.45241465781261       -0.79383276996727
H           72.76772552600801       -2.60336047052567       -0.49857339128409
C           84.86956732277814        0.00549024029909        0.02076525259874
C           85.51026798066381        1.21919472860060       -0.29453609771105
C           84.90309580670737        2.45779523318425       -0.63030104385662
C           85.90047969340976        3.36094899535739       -0.88042832799518
C           87.14553374894469        2.69670789167682       -0.70736548238753
N           86.85852547528509        1.40760050790526       -0.35135614750979
C           88.41199406307705        3.24479881861879       -0.88102788466498
C           89.64376313400828        2.62559185507494       -0.73577114373556
C           90.90296865218440        3.30895978900272       -0.96970299916309
C           91.87597350545758        2.40437763528223       -0.73475299272430
N           89.87262267315967        1.33478819023612       -0.36854207256733
C           91.20996446803505        1.17332066081275       -0.35382745455726
C           91.89177603334514       -0.01609085520594       -0.01866286740333
C           91.24809994025891       -1.22113811712762        0.32686629761382
C           91.85254949808053       -2.45199707937667        0.69351311220002
C           90.85466318963792       -3.35428206024698        0.94334515220082
C           89.61059049406356       -2.69716451078785        0.73982870402444
N           89.89946482939746       -1.41201998001748        0.37023816536262
C           88.34480130612958       -3.25307300296413        0.89147892696078
C           87.11210277136391       -2.64252783603993        0.71955103824716
C           85.85123200859107       -3.33404107853277        0.92024671787926
C           84.87870148424916       -2.43086167878771        0.67730096107940
C           85.54808030320733       -1.19192696226062        0.32784483786480
N           86.88557563915212       -1.34957383488270        0.36144832583014
H           83.83956241053917        2.62647164585897       -0.67810668056160
H           85.79303609453798        4.39589973765427       -1.16363306626628
H           87.54522735940749        0.68446789948847       -0.16309532938889
H           88.42761100157848        4.29028286501172       -1.17364112029887
H           90.99662147221515        4.33938863317309       -1.27475069060815
H           92.94368665616324        2.52961555809414       -0.81166420643157
H           92.91505679719053       -2.61752756839327        0.76071433269565
H           90.96087871129644       -4.38421815708930        1.24444751114303
H           89.21367404119877       -0.69413054176128        0.15968588498808
H           88.33077443063895       -4.29755838259467        1.18729716297462
H           85.75636187482552       -4.36868162432385        1.21030403377242
H           83.80961589070074       -2.56125961975110        0.72964675302131
C           95.92282036361419       -0.00735347091424       -0.02477535969989
C           96.56601861936905        1.24546157171540       -0.07546388291601
C           95.96179906200676        2.52922587259884       -0.11385562189324
C           96.95967372514660        3.46364037565843       -0.17241428394243
C           98.20352865772333        2.77539808618520       -0.16608958398178
N           97.91458189053328        1.43976792175056       -0.10262406319910
C           99.46867402619343        3.35032577246504       -0.22297634387662
C          100.70268383211700        2.71905843612663       -0.20320931257763
C          101.96067905699337        3.43899924418171       -0.28581569431514
C          102.93613663787717        2.50878236699618       -0.22509726735148
N          100.93421686436311        1.38217057067375       -0.09739281042461
C          102.27222446422091        1.22506439122594       -0.10072216181401
C          102.95446275454339       -0.00543079238172        0.00326677571977
C          102.31193342563093       -1.25518903582113        0.10442270083013
C          102.91684067356336       -2.53266232958943        0.23473316871487
C          101.91923224012569       -3.46786709596829        0.28758865146054
C          100.67539337579467       -2.78570297343239        0.19520691681807
N          100.96370060757320       -1.45260410110476        0.09166331953366
C           99.41019671418090       -3.36353874390623        0.19632615616233
C           98.17690229708116       -2.73500654749761        0.12271528069518
C           96.91970158676601       -3.46083699121122        0.11456788203231
C           95.94409173319650       -2.53099462121621        0.05184604333143
C           96.60660859619173       -1.24091102428402        0.02594820707983
N           97.94441057041078       -1.39519270295842        0.06164694632392
H           94.89949541641717        2.70786200342552       -0.09464167093711
H           96.85355066892123        4.53589413943633       -0.21442272221788
H           98.60008310170717        0.69175480453180       -0.07850047773150
H           99.48076789652515        4.43387108610524       -0.29104662511898
H          102.05212552026752        4.50973338267485       -0.37995561888977
H          104.00413405091062        2.65007124033171       -0.26420369419307
H          103.97917953592631       -2.70577016537569        0.28596285716028
H          102.02552164762066       -4.53656884217146        0.38427965741295
H          100.27816050962947       -0.70828975120303        0.01415513602572
H           99.39739414406257       -4.44712069468402        0.26381230947670
H           96.82894196846225       -4.53518853834314        0.14954264065039
H           94.87673602663730       -2.67738469287877        0.01863108078461
C          106.98522411111962        0.00165064896446        0.00367080146227
C          107.63048523891747        1.22628868252704        0.26493816144175
C          107.02711678051358        2.47921020907867        0.55053213836286
C          108.02611134422064        3.39491965037608        0.73945012112810
C          109.26953655424647        2.72468719932723        0.57817633156539
N          108.97922603287925        1.41845672317848        0.29341187377740
C          110.53637473601627        3.28667967421729        0.69304750350182
C          111.76741469808486        2.66333697878957        0.55786801072301
C          113.03043482174809        3.36249424712700        0.71447992589338
C          114.00028291847858        2.44430525187264        0.52374000761185
N          111.98990002632010        1.35076213394975        0.27735397952417
C          113.32739848479420        1.18843508568018        0.24888334336255
C          114.00164038722207       -0.02539202407897        0.00546398840767
C          113.35753001089576       -1.25405756573203       -0.23547310769222
C          113.96278271994720       -2.51031830198905       -0.50231305056927
C          112.96434923270344       -3.42682118990999       -0.69228793568480
C          111.72023083456202       -2.75365629308554       -0.54981497952260
N          112.00894621588778       -1.44594230895933       -0.27197186792974
C          110.45302439894381       -3.31182289020416       -0.68150780225012
C          109.22267702396559       -2.68436556622122       -0.56272874787000
C          107.96042122913367       -3.37844373921785       -0.74347196994576
C          106.99067866591113       -2.45950768827610       -0.55529343022677
C          107.66222467822358       -1.20864685565375       -0.25666349256629
N          108.99903660941675       -1.37341256701852       -0.27241150521967
H          105.96454496208814        2.64915122743450        0.60761549175160
H          107.92123710185159        4.44252063182348        0.97249158396710
H          109.66477256474286        0.68836290990059        0.12955619402034
H          110.55310687673371        4.34773434501934        0.92248931345581
H          113.12831567175972        4.41234178913380        0.94231029685095
H          115.06947370427875        2.57527831383264        0.56703333141392
H          115.02620298328894       -2.68109863737909       -0.54725667316853
H          113.07017131482795       -4.47662279011072       -0.91490308135442
H          111.32251502042101       -0.71367466904354       -0.12193032880113
H          110.43577693946465       -4.37258542163329       -0.91219627250351
H          107.86256096112275       -4.42530723010310       -0.98473204798296
H          105.92195153136350       -2.58729773080181       -0.61482895313003
