264
 energy: -528.643955867913 gnorm: 0.000350910763 xtb: 6.5.1 (b24c23e)
Ni          46.09622267398654       -0.00052821922166        0.00047768547620
C           42.70241360232043        0.03258709323294        0.06577876229046
C           43.35859751103124        1.24183872267946       -0.02830510242240
C           42.68257913135010        2.50141862098264       -0.09300836563391
C           43.64180911957818        3.45552692663905       -0.11699041242267
C           44.90414066292448        2.77735328665832       -0.06759661091962
N           44.71981552184251        1.41759302052927       -0.02606159750500
C           46.12600781484486        3.43048315601052        0.02353867506767
C           46.13885921315436        4.91579081785028        0.03184348190365
C           45.74032581955564        5.62517835891093       -1.10034782144709
C           45.75746238035806        7.01538403607262       -1.09202100712837
O           45.37999078196815        7.71631250841150       -2.18870846029474
C           46.16632806988473        7.69887179748916        0.05423856783533
O           46.16979315406400        9.06900980723210        0.03381529715148
C           46.55890034063050        6.98901056964568        1.18601435641705
O           46.94254572574924        7.72872566435217        2.27351030697811
C           46.55035515634059        5.59947520244875        1.17844651479053
C           47.33397224720648        2.75468269966429        0.12556795357443
C           48.60293918592882        3.41013964596216        0.22257550724891
C           49.54557776349058        2.43793285123257        0.24439313972062
N           47.50009458058754        1.38797653118269        0.08568726864150
C           48.85238411249473        1.19331013985549        0.14509066668230
C           49.51057938441237       -0.03545865751784        0.04402484376797
C           48.83075241828730       -1.24790280152791       -0.09935261096603
C           49.49893393318814       -2.49810501253122       -0.27295260240194
C           48.53540440961925       -3.44749155143843       -0.33907525727709
C           47.28072793447282       -2.77487662786849       -0.18727978114506
N           47.47394771439116       -1.41583976941585       -0.07213644553405
C           46.05836861554730       -3.42967190986546       -0.13084322544401
C           46.03916757557866       -4.91191895858458       -0.20536470330504
C           46.66139016983956       -5.67268155143563        0.78423080855655
C           46.63948854502896       -7.06077311882217        0.71252931486910
O           47.23452862112599       -7.81028413360456        1.67205017944101
C           46.00056244563157       -7.69178699585959       -0.35609600226533
O           45.99935186557195       -9.06123336876317       -0.40285539898720
C           45.38186484537228       -6.93135485755280       -1.34504932649444
O           44.77865810999077       -7.62128236255881       -2.36369658129231
C           45.39430123359569       -5.54392759726098       -1.27170598448368
C           44.85118037259003       -2.75527013233886        0.00176429645354
C           43.58307562231641       -3.41018015450456        0.13622550753984
C           42.64371721951310       -2.43756989949338        0.19859987807961
C           43.33862293347792       -1.19036088499565        0.10642790650291
N           44.69310399674007       -1.39205456855285        0.01249965457420
H           41.61926840569201        0.04351034657504        0.10199649265551
H           41.61076479302793        2.61921851038453       -0.10968003243781
H           43.51962626649544        4.52587312856307       -0.15027382036117
H           45.43256795065604        5.10423760104362       -1.99772334030355
H           45.46231438910535        8.66342577287283       -1.98867255193780
H           46.47908469360411        9.38013100926885        0.89952331491595
H           47.19631821264988        7.15471163667708        3.00811637990642
H           46.84621431098647        5.05250417837783        2.06591990437229
H           48.74549427704305        4.47784286425866        0.25621043406751
H           50.61707228858140        2.53912630851462        0.30597965120622
H           50.56831405190163       -2.61671692183212       -0.33969790640907
H           48.65347963787539       -4.50935908429881       -0.47959714159968
H           47.14899696865718       -5.19348960417195        1.62329930462391
H           47.11182817973381       -8.74741391122809        1.44737292652842
H           45.51774652233997       -9.33259168488992       -1.20050427553576
H           44.38129153535245       -7.01449242915247       -3.00199292905293
H           44.92083377974063       -4.95756434080847       -2.05040868199025
H           43.44388839875488       -4.47799039756192        0.18485612561011
H           41.57429980812260       -2.53545493637095        0.29741762791170
Ni          94.09070080511452       -0.05749247795606        0.02290610325841
C           97.48515243281945       -0.09969412579063        0.06583564950684
C           96.82716121572193       -1.29135974397218       -0.15467520601194
C           97.50166674678907       -2.53684518741916       -0.35838417792353
C           96.54126975569319       -3.48132907460735       -0.48740999826898
C           95.27984050708962       -2.81127626903747       -0.36265447144350
N           95.46573749498985       -1.46490444469616       -0.16951449791349
C           94.05709834255551       -3.46889630629743       -0.34857156483992
C           94.04242784915144       -4.94534528051448       -0.51083506847383
C           94.44069040705624       -5.52091655755025       -1.71664447848067
C           94.42132396581287       -6.90288230191917       -1.86775728648195
O           94.79846723564813       -7.47413670960956       -3.03737168369050
C           94.01065896165596       -7.71259138866157       -0.80758495846517
O           94.00504103971069       -9.07148056385007       -0.98478937334185
C           93.61850564417448       -7.13651244729995        0.39789026857823
O           93.23303304514380       -7.99533505333596        1.39348821517132
C           93.62915555203038       -5.75531345282833        0.54963815958893
C           92.84981946646343       -2.80796881570540       -0.17044372512019
C           91.58020611420497       -3.46907378955514       -0.15111879760949
C           90.63876141792130       -2.50554231932115       -0.01178974319376
N           92.68526821233604       -1.44600485857134       -0.04764369027836
C           91.33335409081080       -1.25872349679531        0.03786243447602
C           90.67638593369125       -0.02636086346098        0.09091883852815
C           91.35678290156727        1.19417517104482        0.09189986920203
C           90.68837400156460        2.45618460210737        0.07638415187532
C           91.65235906945833        3.40660273442036        0.11287976518970
C           92.90777341894835        2.72065032453427        0.16888762757749
N           92.71399124086417        1.35748697171034        0.12515392919198
C           94.13169434569595        3.36475920335480        0.28332682072042
C           94.15149026180805        4.84581440859459        0.37951387701386
C           93.54555747958547        5.48667785823655        1.45994894985646
C           93.56696134894952        6.87381474118535        1.54836876577715
O           92.98754890740206        7.50671847354453        2.59713954748067
C           94.18919565061341        7.62459014843806        0.54955910483818
O           94.19026332317699        8.99015068061476        0.66097000537178
C           94.79177008971327        6.98391676950398       -0.53004948341699
O           95.37916886741031        7.78735640981574       -1.47178667421998
C           94.77978365860183        5.59722289391868       -0.61693055861227
C           95.33960654359288        2.67987112918847        0.32211141324638
C           96.60999802664092        3.31590427490175        0.51344629868275
C           97.54849314826686        2.34194313054250        0.46032186224768
C           96.85083835681992        1.11238124474703        0.24040738406712
N           95.49586197117220        1.32369096301674        0.18112016080406
H           98.56846210656028       -0.11518648751073        0.09521287659888
H           98.57333337470726       -2.65324832542849       -0.38884909403543
H           96.66204856071430       -4.54151925318421       -0.63942830733022
H           94.74990937685222       -4.90104476481858       -2.54822427854530
H           94.71352361970033       -8.43771893579865       -2.94757533468493
H           93.69376448312990       -9.47888143826596       -0.16079024233281
H           92.97888929946923       -7.50839413621312        2.18836748848151
H           93.33331820087432       -5.31316314718203        1.49373224763580
H           91.43652361758528       -4.53299999493990       -0.24520246952114
H           89.56724465299885       -2.61227601898508        0.03886933951863
H           89.61849344602187        2.58192257606877        0.03613905149549
H           91.53413569723027        4.47762862155166        0.10101776289982
H           93.07092932183906        4.91334625366695        2.24572117705210
H           93.10483552482822        8.46385849026576        2.47916895779878
H           94.65679056703691        9.35278718276190       -0.10886166425011
H           95.76456687395070        7.25882750173458       -2.18285895039019
H           95.24044615072731        5.10514277220147       -1.46546457004070
H           96.75121702789535        4.37207410964647        0.67625284285235
H           98.61899363815972        2.42806044915077        0.55841810803007
C           54.71132096306603       -0.06145365238867        0.08737449473594
C           53.48331730095541       -0.06104324392848        0.08657454747940
C           52.13863093521972       -0.05606704437471        0.07864522580408
C           50.91530914015276       -0.04838289842935        0.06300055818837
C           56.05586611347069       -0.06085198940478        0.08028190874398
C           57.27941637358573       -0.05694370763644        0.06605388906545
C           70.70796422398918       -0.02062670231635        0.03953892682622
C           69.47987218471367       -0.02550196400741        0.03777421794941
C           68.13548379605987       -0.03132290063314        0.03106592636899
C           66.91188372991991       -0.03685582247232        0.02141040836637
C           72.05237351418236       -0.01562327986627        0.03723955219456
C           73.27599791859272       -0.00909274258976        0.02950506708331
C           86.70392431689190       -0.00288817499834        0.14800907755185
C           85.47594448198242       -0.00101718651241        0.15051454860317
C           84.13144601853554        0.00036179629921        0.14085698961383
C           82.90798155922455        0.00063817088131        0.12199631503536
C           88.04854990962338       -0.00795948848679        0.13753933240361
C           89.27180555151716       -0.01473740539479        0.11860513908461
Ni          62.09557277485833       -0.04381179605814       -0.01031135494791
C           58.68306432084772       -0.05303592523541        0.04270430768784
C           59.35788345687865        1.14427251185123        0.30146215757849
C           58.69331663298006        2.36428029461932        0.62914874596116
C           59.64592595235766        3.32812849575340        0.66488511015088
C           60.88891116879276        2.69269575562475        0.35177399204073
N           60.70542872474569        1.33999400462651        0.17446521694089
C           62.08956154139681        3.37251737914127        0.18828677291115
C           62.08166541212181        4.85295035651452        0.25912504165782
C           62.83383088298960        5.51784383495823        1.22819928262693
C           62.83100045714500        6.90780999063188        1.30760229247220
O           63.54994574895942        7.56633379492121        2.25344637109428
C           62.07442224846528        7.65316215261200        0.39735796793123
O           62.05678192984397        9.01024360848077        0.44435524346157
C           61.32738249686028        6.97973930678277       -0.57297055016323
O           60.61232864089038        7.76908266824756       -1.43619860156310
C           61.31907844328244        5.59393131698238       -0.64572458584289
C           63.29544623469629        2.72006024475279       -0.03362833368264
C           64.54234462863396        3.38981959341235       -0.24340743285638
C           65.50026609563704        2.43144994666989       -0.27981751562909
N           63.48296750495291        1.35616640938572       -0.00011802108041
C           64.83430922686627        1.18038358496434       -0.10974731440457
C           65.50812469708134       -0.03966108782322        0.00780099739428
C           64.83579142842405       -1.26202465833266        0.09839378121123
C           65.50397643162842       -2.51625270780811        0.23747372025554
C           64.55148182736522       -3.47596805540181        0.14784609647229
C           63.30435817012671       -2.80315445818907       -0.05190837899067
N           63.48640069211494       -1.43873459325670       -0.03686974147920
C           62.10061584743515       -3.45319213933108       -0.29021479377973
C           62.10410370618598       -4.93118974216913       -0.41869824632177
C           62.83909328920839       -5.53965556300331       -1.43672152773755
C           62.82943957604679       -6.92355632394727       -1.56623779679445
O           63.52296644113235       -7.52673960102687       -2.56013213716655
C           62.09147534775258       -7.69980823147618       -0.67020919158449
O           62.11284203471119       -9.07742454389520       -0.83222481365071
C           61.38950853862418       -7.09512368209119        0.37073619891199
O           60.69652648527849       -7.85140575832085        1.26978431567629
C           61.37978300038865       -5.70941081998670        0.48461248794685
C           60.89278595083061       -2.77755513869895       -0.40455687380911
C           59.64284567240082       -3.41415197570913       -0.68764420130220
C           58.68562717772382       -2.46038988206855       -0.58407935078555
C           59.35451229127687       -1.24331127581918       -0.25288245715477
N           60.70718402052880       -1.43140985721133       -0.18359138770177
H           57.63345413942913        2.45699958056888        0.80325976409299
H           59.52720092139150        4.37581933152713        0.88816470945148
H           63.41383492946927        4.94942196396955        1.94648173410185
H           64.02663303098745        6.94837046333690        2.82301894201286
H           61.47811137991170        9.33106510517984       -0.26608851235355
H           60.12911300161637        7.23023998710950       -2.07600002453028
H           60.74092867678493        5.09520167775749       -1.41468406610523
H           64.66084755428061        4.45570873892492       -0.34989127807389
H           66.56412093998203        2.54635437027262       -0.41100675373063
H           66.56633446903581       -2.63160552262049        0.37967451019371
H           64.67229517821477       -4.54487384861968        0.21307656424009
H           63.39834673704398       -4.94454920049369       -2.14696815719250
H           63.39378299516360       -8.48701154141971       -2.48348459424356
H           61.23234767968354       -9.45169413713487       -0.69794280397490
H           61.00252597618531       -8.76899322494416        1.24386135955595
H           60.83018616956944       -5.24959478750419        1.29568357427575
H           59.52266709604521       -4.45674445855219       -0.93263541381428
H           57.62012951598559       -2.55724876960567       -0.71634622396370
Ni          78.09256141529779        0.00147555907588        0.01154160566998
C           74.67975138478295       -0.00481941235144        0.01833562297241
C           75.35174848967957        1.19417807741577        0.27613427380461
C           74.68295194031592        2.41712964030887        0.58406441739654
C           75.63561640048131        3.38043907601338        0.62791581713071
C           76.88318735959481        2.74165648545162        0.34052787393076
N           76.70118923276985        1.38795648606284        0.16868950990221
C           78.08784321499510        3.41880096121342        0.19813288610878
C           78.08165212920612        4.89940212464716        0.26557145492782
C           78.81567981457407        5.56410831462163        1.24861842697567
C           78.81439254422588        6.95416781233518        1.32597351572178
O           79.51566942902812        7.61246338947123        2.28505150056926
C           78.07785299174995        7.69983331042565        0.39964087962868
O           78.06227999957324        9.05693668674244        0.44439443585623
C           77.34889094698838        7.02660083359728       -0.58446824255087
O           76.65306967672021        7.81630557788324       -1.46289213411162
C           77.33896597293858        5.64067527394951       -0.65543654851908
C           79.29701340053334        2.76353522270311        0.00295319023733
C           80.54875815373153        3.43101287222885       -0.18389192061631
C           81.50569867506515        2.47114733782954       -0.20020838893160
N           79.48166482234522        1.39954914702574        0.04322877952941
C           80.83466941388542        1.22144452664780       -0.04075213989629
C           81.50448243830878        0.00068147062085        0.09040392766429
C           80.82883006129516       -1.22060974476554        0.17114697656373
C           81.49273687204763       -2.47587879155294        0.32030684100892
C           80.54094624756549       -3.43428436964535        0.21046967408751
C           79.29862736687238       -2.75945090875421       -0.01056060778372
N           79.48183428417668       -1.39542673838083        0.01099323113007
C           78.09847042826127       -3.40787059235868       -0.27129827750526
C           78.10438548179418       -4.88540717669894       -0.40584495969332
C           78.85344058623107       -5.48854998697681       -1.41673468040148
C           78.84739267916292       -6.87187216878857       -1.55236165592316
O           79.55458224468231       -7.46968150240955       -2.53967908698875
C           78.09903719808298       -7.65296307362308       -0.66916355017209
O           78.12498364830026       -9.02978282778141       -0.83658299374526
C           77.38268389092515       -7.05360686341238        0.36497754694056
O           76.67930829295679       -7.81473114337798        1.25215389482840
C           77.36936349550717       -5.66837915862719        0.48457174678914
C           76.89300957039687       -2.73136230807449       -0.40122297298302
C           75.64613067000919       -3.36700302643786       -0.69978783737391
C           74.68807774311203       -2.41326956452061       -0.60451080258739
C           75.35380189308995       -1.19670824578365       -0.26484954547617
N           76.70534154720116       -1.38526139204719       -0.18040460903546
H           73.62045928769443        2.51195364164121        0.74006503537789
H           75.51405216702592        4.42987513116454        0.84116481131465
H           79.37975107444518        4.99543934842627        1.97929875605901
H           79.97930090074469        6.99434244437710        2.86513291133046
H           77.49784352950968        9.37813497400363       -0.27726283727014
H           76.18016990003065        7.27775980395927       -2.11055489244408
H           76.77530385346223        5.14213302106524       -1.43518515540578
H           80.67099081742602        4.49650176665925       -0.29001038907860
H           82.57206387746507        2.58419374202975       -0.31090774422186
H           82.55212762463765       -2.59288401039160        0.48197899461108
H           80.65916730360657       -4.50351966458174        0.27519209146458
H           79.42137392772122       -4.88962392476445       -2.11680247730136
H           79.42593759469423       -8.43048914475923       -2.46926308337932
H           77.24423622461410       -9.40672597184035       -0.71133697057590
H           76.98832703268991       -8.73129356655810        1.22764673836556
H           76.80862072750669       -5.21283028308689        1.29040056054631
H           75.52848335571255       -4.40907349602874       -0.94824195373984
H           73.62411178539149       -2.50947835559086       -0.74901988166928
