186
 energy: -307.936288290657 gnorm: 0.000804390455 xtb: 6.5.1 (b24c23e)
C           20.10615053821596       -0.08818789491700        0.01251409086859
C           20.72045265311451       -1.16159038708734        0.64466576180553
C           20.07495947429510       -2.27966317161212        1.24343213462295
C           21.04090228957435       -3.09812425319164        1.75766868097184
C           22.30766984984278       -2.50101166226686        1.49877637322178
N           22.06372212643145       -1.34217087644609        0.81783156674056
C           23.57225060068707       -2.99049531059855        1.84536793850451
C           24.78449036071775       -2.37565192384471        1.52408179819704
C           26.08184333689120       -2.87192364064883        1.94711334672233
C           26.99991803403085       -2.02410954317389        1.43890279255783
N           24.93597823776510       -1.23589329174708        0.79431344490461
C           26.26198111153100       -1.00586255759361        0.71670670010225
C           26.89620282418394        0.05508074988412        0.03824539787962
C           26.25654478027944        1.11012100815133       -0.63961905454713
C           26.89642837167177        2.16746367250765       -1.33934129374412
C           25.92577218998772        2.98786353570522       -1.84368108950099
C           24.66177139307928        2.45940177624480       -1.46061405610761
C           23.39808390238638        2.97207458164810       -1.77049572075236
C           23.36123298861787        4.23969760349158       -2.54034717134918
C           22.76759851963327        4.28317983973489       -3.80268910908462
C           22.73527910683426        5.46838864664345       -4.52180807362806
C           23.28961146575464        6.62416793001255       -3.98864853169376
C           23.88015955640832        6.58959420339981       -2.73275865882478
C           23.91949748147981        5.40494118977094       -2.01283610270970
C           22.18360279858104        2.37831205454413       -1.41094361270997
C           20.87690715958701        2.94822734808923       -1.70059274623136
C           19.96586682578164        2.08767317516134       -1.20340841981169
C           20.71469937538675        0.99906227378985       -0.60057240196526
N           22.04658479310503        1.21202916208723       -0.73688211149214
N           24.91405716442775        1.32058160185485       -0.74164594111217
C           23.60778263073799       -4.26159126256088        2.60996625931697
C           22.99932399080785       -4.35278986817411        3.86265126424256
C           23.03310108080104       -5.54292574124245        4.57381036460578
C           23.66921252792187       -6.65633801446818        4.04199280366427
C           24.27486862312501       -6.57437301624294        2.79545645654923
C           24.24701949396358       -5.38491828268282        2.08326260565123
H           19.02103010320712       -0.10990908730806        0.00154477972036
H           19.00729483385310       -2.42963811985139        1.26532991508944
H           20.89502263842116       -4.03812634175785        2.26467522280117
H           22.78541655642156       -0.71123089895354        0.48571943192285
H           26.24538454224997       -3.74243055421516        2.56145275365215
H           28.07320724045213       -2.05658169954354        1.53714093179124
H           27.96418306982769        2.27476055831796       -1.44259684861305
H           26.06858082117164        3.87574748509188       -2.43774317039277
H           22.34567839449412        3.37848336153836       -4.22602297351499
H           22.27597635308852        5.48924656994394       -5.50389408902267
H           23.26129945085562        7.55056362745441       -4.55101778636190
H           24.31146897336136        7.49031435111615       -2.31016762449383
H           24.36892816551532        5.38341129637703       -1.02616001174927
H           20.70546423477735        3.88556636709601       -2.20497585389448
H           18.88954461866516        2.15899698834379       -1.21991269685934
H           24.19462691457083        0.72016288024064       -0.35236966730306
H           22.51454545547529       -3.48035688977369        4.28677608537549
H           22.56129995861064       -5.60055508259065        5.54849684249752
H           23.69341882136305       -7.58637420505507        4.59851735872576
H           24.77149827774578       -7.44173904084014        2.37470601314689
H           24.70914590037995       -5.32637477617043        1.10410315574277
C           64.03815854824215        0.04657946386783       -0.07185503283777
C           63.41655855201626        1.07361400795132       -0.77039755806911
C           64.05455507382231        2.10103604196735       -1.52052071002706
C           63.08265553982068        2.91140756658773       -2.03636600796582
C           61.81954725956298        2.41080911846206       -1.60950305932555
N           62.07159087611759        1.29762515932695       -0.85893386892825
C           60.55138740409523        2.92692520288054       -1.89945761453944
C           59.34300632822909        2.36279578154526       -1.48441448435445
C           58.04186834844977        2.95154754803955       -1.74650324836881
C           57.12913325380270        2.11853995620766       -1.20522599099612
N           59.19900874068396        1.20821331266734       -0.77680022047195
C           57.87408164222602        1.02904014019952       -0.60444312207531
C           57.24713596801228       -0.05237833221955        0.04813951484300
C           57.89475876616802       -1.11855141049079        0.70057954884923
C           57.26321243131812       -2.21533273452091        1.34482182868818
C           58.23965696592099       -3.01299562238978        1.87397127048767
C           59.49889109301387       -2.42300915253916        1.57404042314122
C           60.76586776332693       -2.90706342817715        1.91539728319791
C           60.81074422098970       -4.14247539623504        2.73533916859249
C           61.42726622534544       -5.29510819488502        2.24628681804561
C           61.46852827508537       -6.44826573545560        3.01533219705549
C           60.90005698212141       -6.46398018920694        4.28181620873329
C           60.28599790785219       -5.32119911988226        4.77597537823403
C           60.23796578551134       -4.16760620907259        4.00783152051004
C           61.97643437988441       -2.31419413733916        1.54129199530221
C           63.28622861640707       -2.80532355581457        1.94061917254343
C           64.19180156857466       -1.98007478882664        1.37790378463624
C           63.43644343255475       -0.97812021665945        0.64670488343938
N           62.10612820684725       -1.20545741403784        0.77492541883444
N           59.23827291631756       -1.28587297410619        0.85544512145527
C           60.50672111642145        4.16724781767664       -2.71265148696528
C           61.10446554149670        5.34040707466150       -2.25005148699483
C           61.06071340271865        6.49773408547700       -3.01295733134311
C           60.42580801825026        6.49669897493133       -4.24745049467005
C           59.83137517774615        5.33286256741164       -4.71598037444137
C           59.86868991913910        4.17502416182199       -3.95389087120289
H           65.12329158924162        0.05511347252111       -0.09378640636697
H           65.12157680327134        2.19332415675131       -1.64633060101551
H           63.22200642955793        3.77595925132320       -2.66492654455841
H           61.35430129778408        0.72037723859354       -0.43293202383007
H           57.87241251934826        3.88288269458124       -2.26211022289023
H           56.05520266287711        2.21410421912326       -1.19203817649723
H           56.19684620886139       -2.36785574504611        1.38831408332056
H           58.10394611473215       -3.93468715706414        2.41591720622013
H           61.86017962465451       -5.28864218597428        1.25218406027209
H           61.94613406340372       -7.33936549330445        2.62325976418550
H           60.93563663008306       -7.36546500744111        4.88291182886401
H           59.84325234728097       -5.32701883142080        5.76585145749593
H           59.77037510586196       -3.27185127511908        4.40150311078438
H           63.46344170235523       -3.65884584272770        2.57502452586320
H           65.26822614377819       -2.01460471244031        1.44073382841791
H           59.95285058612845       -0.66531163568270        0.48954216913216
H           61.58876306388226        5.34749933044440       -1.27976804537702
H           61.52394815631964        7.40490664251860       -2.64097294745269
H           60.39343587566662        7.40195530357113       -4.84306928927312
H           59.33529045996275        5.32641721361931       -5.68032330639387
H           59.41471707775593        3.26359337040788       -4.32665420589420
C           28.30184164261468        0.07192370183465        0.03002917892426
C           29.52641648845459        0.08100049578651        0.01562218813027
C           30.86910325876196        0.08834980989655        0.00333100197811
C           32.09979016808799        0.08847419224747       -0.01168457280764
C           33.43773081982329        0.08590533806201       -0.02078644465258
C           34.66848142376197        0.07852358910552       -0.03324934280581
C           36.01097366423608        0.07171264059512       -0.04302276088426
C           37.23572924252529        0.05637222213246       -0.05265701653026
C           46.90818814364754       -0.07425750186158       -0.01117982637753
C           48.13284794595116       -0.09418683781472        0.00549488365061
C           49.47514609808457       -0.10734784337534        0.02287451085751
C           50.70590476407663       -0.11526975462011        0.03844610155631
C           52.04380110286863       -0.11902859611504        0.04464919540561
C           53.27457133115715       -0.10982069360150        0.05337464473748
C           54.61717772313590       -0.09572471786528        0.05692723320744
C           55.84175150982953       -0.07712811450844        0.05789391156954
C           38.64043315912519        0.04330411905029       -0.05705841678050
C           39.27991908646922        1.19722852684497        0.43554485930342
C           38.64422452802227        2.35439111047379        0.95541473071832
C           39.61923263835977        3.24427265053978        1.31479705820287
C           40.87957635952701        2.65801450275039        1.01694804408730
N           40.62338192340565        1.41808401659066        0.49513482817563
C           42.14477588755555        3.21764612605485        1.23072557137407
C           43.36395669284432        2.59050609899122        0.97004531579673
C           44.65610984510609        3.22536578719882        1.15916681055654
C           45.58572694585575        2.31202689598789        0.81046292941081
N           43.52992074383383        1.32456709791130        0.49678144178968
C           44.86002917805554        1.12626486105282        0.39989192814922
C           45.50377739398768       -0.05259057630597       -0.02761317587984
C           44.86354601232760       -1.22280661699329       -0.47917748299773
C           45.49822880304824       -2.42052537922995       -0.89867043520238
C           44.52345136206121       -3.30260827926304       -1.27744681878416
C           43.26444444006501       -2.66516287065103       -1.10603293363477
C           41.99985228370422       -3.20706097558040       -1.36461178383355
C           41.97473221387874       -4.57915787607950       -1.93181545427423
C           42.54377897913677       -4.83784272743074       -3.17939828642094
C           42.51771839658890       -6.11909846464534       -3.70951836576421
C           41.93031326741207       -7.15679612151334       -2.99870856206134
C           41.36538123217437       -6.90779510737223       -1.75528184896393
C           41.38404379297288       -5.62680451384321       -1.22438323309728
C           40.78081478652644       -2.56804433553797       -1.13427933018374
C           39.48970844798763       -3.14873069495899       -1.45734410813548
C           38.56003125096942       -2.24375983904708       -1.08769041371729
C           39.28483355698807       -1.10891282011563       -0.55090345233583
N           40.61443713308341       -1.32720357497151       -0.59867502343761
N           43.52084240214644       -1.41354492479383       -0.61310285350208
C           42.17136043752262        4.59514023362430        1.78450988041797
C           41.62014177075780        5.65714912304754        1.06660420731071
C           41.64766749577561        6.94297870017961        1.58555049445061
C           42.21875364359482        7.18232362166394        2.82800130755629
C           42.76609105965090        6.13017916598778        3.54959593084861
C           42.74594224409993        4.84401476170252        3.03153148585434
H           37.57715808492081        2.47923532845884        1.04450434343858
H           39.48031737944113        4.21764002838253        1.75615366553016
H           41.33668375629657        0.75858915093179        0.20275014316228
H           44.80873861393910        4.23646133523302        1.50017546993197
H           46.65963117076144        2.40868471082644        0.81393652817925
H           46.56445438232002       -2.57960957325103       -0.90283060556976
H           44.66142833982033       -4.30964896654960       -1.63573494529897
H           42.99209734294377       -4.02597930327900       -3.74140150442482
H           42.95735549808946       -6.30747740216729       -4.68270764091844
H           41.91275251352170       -8.15828411875118       -3.41339691325420
H           40.90823256095580       -7.71564178167661       -1.19473305002897
H           40.95265822089829       -5.43588309344731       -0.24812121755925
H           39.33783988678371       -4.11266831911487       -1.91522138532766
H           37.48673892663606       -2.30938440390997       -1.16754108765750
H           42.80811940279869       -0.73077491996892       -0.37839541279603
H           41.18480539469449        5.47408549370748        0.09042765432742
H           41.22196096389256        7.76186648846463        1.01628206691606
H           42.23738691030044        8.18762436122280        3.23331116566970
H           43.21052438443473        6.31141906378386        4.52193940237740
H           43.16350285136209        4.02122846963899        3.60101830049446
