126
 energy: -227.012120129039 gnorm: 0.000395338527 xtb: 6.5.1 (b24c23e)
Fe          14.57795734467870        0.02997793570857       -0.09348322035086
C           11.18929776361009        0.08161758984937       -0.16316523132638
C           11.85095563786876        1.29089892655412       -0.11176987835818
C           11.18235255184200        2.55683395487798       -0.08334130265002
C           12.14050344731893        3.49727050787764        0.08854372788055
C           13.39519148906387        2.80445606836664        0.14920555615619
N           13.20525014093283        1.45596512288748        0.01631014809985
C           14.61448517062948        3.42582184689374        0.39581192968841
C           14.63230861872093        4.89372233486291        0.60166287601515
C           14.98607677329141        5.42837389804629        1.84337130711850
C           15.00131525217475        6.79706332663678        2.03278730290626
C           14.67082177398832        7.66027277042327        0.98303449256022
C           14.69917369177596        9.11737901522223        1.20877222850918
O           14.98948176388814        9.62572977545108        2.26100877611686
C           14.32110143273966        7.12581119958764       -0.25918561155184
C           14.29887332580770        5.75503876309718       -0.44645298458989
C           15.81883318695812        2.73898565822968        0.43824170727767
C           17.09019439836808        3.37392511367587        0.62164868894449
C           18.03224118142350        2.41400316164969        0.46315903246562
N           15.98613348273911        1.39607798479127        0.19517013502668
C           17.33451164567396        1.19704123259916        0.18785945908181
C           17.98649186155627       -0.01205270645333       -0.08522974770057
C           17.30297922056439       -1.21268395452297       -0.31170137373517
C           17.96647089941960       -2.44837731669901       -0.58699765402406
C           17.00351884046770       -3.39867008215083       -0.65610005433699
C           15.75401465321856       -2.73830461258364       -0.42038702195864
N           15.95318891307576       -1.39118087434525       -0.23668472161749
C           14.52927029162296       -3.39053724175628       -0.37803992201415
C           14.50747164424920       -4.86492342326712       -0.51340905164539
C           13.84450455736044       -5.46495080009580       -1.58764184679821
C           13.82094150520926       -6.84232606063771       -1.71527568333995
C           14.45618076669982       -7.64763283566870       -0.76698892728490
C           14.44003793804231       -9.11812026880297       -0.87704396800287
O           14.97194594815776       -9.85400771794948       -0.08612122826613
C           15.11983720633431       -7.04726788277986        0.30801498979692
C           15.14825832122419       -5.67148287259951        0.43176110619808
C           13.31976758500718       -2.71905542062851       -0.23364787570912
C           12.04300756854400       -3.37078585951312       -0.17316821876908
C           11.10700090359108       -2.39388107052833       -0.13212611912771
C           11.81320348480203       -1.14856661477897       -0.14730996167916
N           13.16692114757902       -1.36030557808844       -0.17329321013672
H           10.10585782627327        0.09888792341456       -0.19888865492287
H           10.11539734882117        2.68699664507843       -0.16987573317205
H           12.02037113383270        4.56459343281865        0.17903831583635
H           15.23488713735128        4.76041249774158        2.66014808373773
H           15.26877065899751        7.22162639221954        2.99446621431100
H           14.42683751605233        9.72184171087908        0.31735832522709
H           14.06741913604567        7.78888647910651       -1.07987640698872
H           14.03738922564869        5.34181500200449       -1.41404429846599
H           17.23325058984662        4.42255820884935        0.82494527442378
H           19.10469790434949        2.50746738031842        0.51869574056850
H           19.03207252969123       -2.55866557406779       -0.70735590352049
H           17.11779445646540       -4.45097852434102       -0.85883701111909
H           13.36079369762546       -4.84174218805602       -2.33133777048613
H           13.30796961276419       -7.29990561412684       -2.55496621442934
H           13.88807902693292       -9.50284984306577       -1.76106005090851
H           15.60837322993168       -7.68083588422256        1.04049002019736
H           15.65327192112056       -5.20887437230779        1.27212206843795
H           11.89479467477707       -4.43831084910637       -0.16035244123077
H           10.03361616328151       -2.48785895377033       -0.08932988921133
Fe          30.55967419601259       -0.01699106015068       -0.09616139324710
C           33.94833889020759       -0.05795645785136       -0.17372762811791
C           33.28671043001957       -1.26219605879513       -0.29562062227576
C           33.95536083328576       -2.51917564080753       -0.44837630109963
C           32.99729202388323       -3.47459086642790       -0.41215196587651
C           31.74258596299128       -2.79762238456223       -0.25296453032443
N           31.93245483808563       -1.44395369048824       -0.19212027128814
C           30.52333971712337       -3.44787777605072       -0.09736744983502
C           30.50558432628430       -4.93012107726325       -0.10238903052353
C           30.15132053775622       -5.63561569560073        1.05071872104620
C           30.13607884376379       -7.01731778855085        1.04398325409764
C           30.46714399674994       -7.72280588729879       -0.11749342992976
C           30.43890659880161       -9.19720225386210       -0.10072909090858
O           30.14791650186619       -9.84965906482782        0.86856670217490
C           30.81735160730233       -7.01744893603386       -1.27113399127817
C           30.83952769075760       -5.63396035006549       -1.26198749963223
C           29.31896630594245       -2.77418740875284        0.04286919113075
C           28.04765080295963       -3.42888446205186        0.13396325853144
C           27.10554598826888       -2.45620486188171        0.11470479017322
N           29.15157060632140       -1.41033888889805       -0.00566250442859
C           27.80318317212535       -1.21235096977289        0.01607614680086
C           27.15110700048315        0.02329725940507       -0.08137417950144
C           27.83451175416543        1.24404167056911       -0.13367177779035
C           27.17092540788258        2.50635792371719       -0.22938385636924
C           28.13388042967733        3.45680779723253       -0.16273756472155
C           29.38347810489747        2.76959998792455       -0.02428788685020
N           29.18432633534643        1.41003858141026       -0.03458625811469
C           30.60826791804610        3.40909535659375        0.11027835153816
C           30.63012944934170        4.88775221028328        0.18569580726176
C           31.29314685715126        5.63405292181266       -0.79256120783258
C           31.31631507143253        7.01562207837887       -0.72383770401748
C           30.68067137514727        7.67833043767650        0.32881026281121
C           30.69630067782635        9.14960603631498        0.42802173402045
O           30.16401885546978        9.76590719725663        1.31507891340968
C           30.01713422178469        6.93158158808814        1.30789128816650
C           29.98910846022451        5.55213101233486        1.23554372578700
C           31.81775439126946        2.72385296258540        0.15743333245244
C           33.09447121242811        3.36029615872247        0.31054302634839
C           34.03052899790070        2.38761017054655        0.21143972666499
C           33.32439566116550        1.15724522313748        0.01822686790194
N           31.97065994341554        1.37044324771487        0.02289183466989
H           35.03176727354797       -0.06986380451030       -0.21187971668965
H           35.02230082063934       -2.63557661839809       -0.55285390822435
H           33.11751575702324       -4.54389585123144       -0.47483864954394
H           29.90213265859590       -5.09030976139402        1.95390762303579
H           29.86822870934492       -7.57405499362743        1.93555979148621
H           30.71159232312578       -9.66911205428370       -1.06876379523216
H           31.07145247374218       -7.55734601987685       -2.17750243309420
H           31.10135620246841       -5.08763581888662       -2.16106321386780
H           27.90464613677947       -4.49582200116287        0.18515104758946
H           26.03310580356007       -2.55664984216620        0.15679833157062
H           26.10526020008746        2.63270717845270       -0.33203652843939
H           28.01949326376529        4.52726627639513       -0.21319584546210
H           31.77713272584695        5.12257252047466       -1.61693707180626
H           31.82924700813521        7.58765430418957       -1.49018014476369
H           31.24731268234039        9.65581414478591       -0.39309692935844
H           29.52835401279095        7.45489549865668        2.12264811606305
H           29.48416461157437        4.97503018454670        2.00185758234738
H           33.24257680781907        4.41500700363908        0.47605106506085
H           35.10390457396401        2.47454330535621        0.26731358974664
C           23.18387810210417        0.01837022198238       -0.13792440590896
C           21.95374458720419        0.00094796454006       -0.13825336407563
C           20.61257809478291       -0.00804431040515       -0.12911211427701
C           19.38704332441788       -0.01906633403655       -0.11498592514609
C           24.52502295096537        0.02853668192461       -0.12762646524628
C           25.75057277974203        0.03462602022972       -0.11066374395012
