242
 energy: -442.296577151109 gnorm: 0.000330995675 xtb: 6.5.1 (b24c23e)
Cu          46.67188981558247       -0.02447563499112       -0.01598936299318
C           43.26633511554695       -0.05362107242031       -0.01007051143823
C           43.90074563991207       -1.28597583275897        0.03812700633030
C           43.22544474807185       -2.54847389616771        0.13145972010920
C           44.18385033238416       -3.50747523963810        0.16598856746010
C           45.45427527547112       -2.83949061930257        0.08398745388797
N           45.25094281450008       -1.49100367795610        0.01696618768695
C           46.69848586693448       -3.47485074298615        0.09476524557967
C           46.71191170195953       -4.95833108081749        0.15128058527049
C           46.14858604915077       -5.71398836574610       -0.87707389554641
C           46.16309672092542       -7.09961054562789       -0.82797787181373
C           46.73895597122368       -7.74649197298690        0.26290849349618
O           46.77146020270842       -9.10148951772022        0.35339580191513
C           47.30176458120990       -7.00343248176939        1.29890381280534
C           47.28927012073856       -5.62123203077898        1.23704760892686
C           47.93130082793000       -2.82007222455842        0.06055148680681
C           49.20809958744907       -3.47495408400487        0.01905144854032
C           50.15436748751914       -2.50237135909503       -0.00846806642564
N           48.12024469799417       -1.46335303017689        0.04055295545944
C           49.46365461747357       -1.24803118981201        0.00742240337750
C           50.09914476302188        0.00548169958975       -0.00983153341375
C           49.44241315274319        1.24789170964258       -0.03100697182099
C           50.11245345257634        2.51199866162828       -0.09337368263604
C           49.14989797354202        3.46769986769296       -0.13822791100640
C           47.88337891149864        2.79330845714226       -0.09256357629294
N           48.09524449284668        1.44107704431388       -0.03258418873110
C           46.63922242909974        3.42541408446602       -0.13777798388768
C           46.62503284742463        4.90874330378981       -0.20180473221159
C           47.15578264570865        5.67270976390274        0.84014847252252
C           47.14415669687605        7.05523968442665        0.78250113952159
C           46.60353779694042        7.69609996467726       -0.33067103918073
O           46.61238479294138        9.05423658108606       -0.35723528054961
C           46.07270840030488        6.94749312467790       -1.37838713873335
C           46.08230236458108        5.56286071455197       -1.30798814224220
C           45.40636676118471        2.76818376259582       -0.12981326756115
C           44.12397855987653        3.41810114895455       -0.12187702063074
C           43.18214341357341        2.44282547936063       -0.08797003694852
C           43.87947330368218        1.18903516097560       -0.06744280629905
N           45.22627673816888        1.41534029434237       -0.09141123331337
H           42.18133547279787       -0.06209503513238        0.00931103289436
H           42.15445775594709       -2.67068067438315        0.17264056671262
H           44.04961386358463       -4.57378882641602        0.25250098195088
H           45.71101376430262       -5.21198097113227       -1.73284584831629
H           45.73029940741712       -7.68214028245249       -1.63427764567009
H           46.35333503103053       -9.51551250849031       -0.41344491033622
H           47.74228924582930       -7.51964527111122        2.14289005327567
H           47.71702671679100       -5.04300911417039        2.04845865214855
H           49.35740578524118       -4.54239238435738       -0.00063471294025
H           51.22627929909964       -2.61462506924972       -0.04286498947236
H           51.18286500284758        2.64128795789451       -0.11001888341181
H           49.28242748818511        4.53511170182585       -0.20977100255411
H           47.56626577410390        5.17458439037484        1.71139157210075
H           47.54925428368237        7.65019218678720        1.59172632555139
H           46.21394395622281        9.39275866257882       -1.17023102355224
H           45.65632698084140        7.45040542027436       -2.24468530310815
H           45.67980536843575        4.98090781631473       -2.12973082854541
H           43.97111683554964        4.48540761633487       -0.12621305210049
H           42.10881055189517        2.54910947863580       -0.07041885854293
Cu          87.07742771528443        0.00780703422220        0.00135103901805
C           90.48308788182574        0.04562223282062       -0.00471607021020
C           89.84533512153281        1.27234181140875       -0.11231525132342
C           90.51772009338225        2.53752067171230       -0.18771583922884
C           89.55677163091688        3.49162741367203       -0.26248897060467
C           88.28757963296567        2.81679183254234       -0.24066837747248
N           88.49423407795486        1.47057952899732       -0.14369163668979
C           87.04211078424592        3.44845630806763       -0.27720003229881
C           87.02704674530243        4.92782543220160       -0.40340269257255
C           87.55630998573935        5.54689656334539       -1.53592469524301
C           87.54035297403607        6.92759510633787       -1.66152177954463
C           86.99749655552236        7.70771922143897       -0.64330780713853
O           86.96465823787899        9.06330502460353       -0.72342809332792
C           86.46954847100790        7.10206971288897        0.49537688454273
C           86.48310409438373        5.72299682427465        0.60800197175437
C           85.81096392610587        2.79411201216201       -0.20350248219666
C           84.53159177750661        3.44052440749176       -0.28056862425355
C           83.58796939074327        2.46934789422293       -0.18934524496586
N           85.62585772316723        1.44220893872827       -0.07921594599936
C           84.28259317998437        1.22315091836981       -0.06625153206857
C           83.65013783644157       -0.02905716147726        0.02017652170161
C           84.31033083501755       -1.26717990604197        0.09997809462989
C           83.64416246321683       -2.53358325540335        0.15377505180491
C           84.60939931315528       -3.48534761526816        0.22102253468613
C           85.87347619441218       -2.80511017757932        0.21758703453818
N           85.65803322554201       -1.45467878630252        0.13311293252411
C           87.11914152357824       -3.43387977827587        0.26796751006868
C           87.13739539474416       -4.91374758885743        0.38493969181877
C           86.58431085983045       -5.54557856953292        1.50130032762719
C           86.60412382362780       -6.92420619916495        1.61796697377798
C           87.17568058627285       -7.69518712295975        0.60746954608701
O           87.17589902817217       -9.04576793607345        0.75234023420615
C           87.72739082405975       -7.07954667531599       -0.51350314412335
C           87.70929140829881       -5.69710895239716       -0.61775308928338
C           88.35031625362910       -2.77536771512084        0.21832439673122
C           89.63405379182157       -3.41468825494998        0.31886179274159
C           90.57328140358818       -2.43964111222562        0.23845589659316
C           89.87288523690954       -1.19551013510349        0.09732441628901
N           88.52671975657081       -1.42712809141799        0.09352523203188
H           91.56807599754963        0.05904274889129        0.01106143180308
H           91.58875014661864        2.66553408567085       -0.17608883224595
H           89.68843788570449        4.56054834686294       -0.31348758872367
H           87.96861156910961        4.94008552701658       -2.33452801448224
H           87.94642377136483        7.40304917059186       -2.54798813973576
H           87.35582252944450        9.37661504735521       -1.54993105255269
H           86.05468992671290        7.72137146829726        1.28104655127611
H           86.08254591101699        5.25251014321148        1.49899873306452
H           84.37844621379027        4.50052184352085       -0.40307774848786
H           82.51524574617889        2.57677282673849       -0.21131798804793
H           82.57436338571353       -2.66768092325284        0.13559413892675
H           84.48060195166789       -4.55502312876149        0.25675617683596
H           86.15032572648730       -4.94543859660808        2.29325711150876
H           86.18241204040757       -7.41620433964923        2.48572596742454
H           87.59621389658284       -9.48061016905101       -0.00167944749528
H           88.16726868416576       -7.68376148400645       -1.29975813083016
H           88.12848675573933       -5.21976321520636       -1.49658164629892
H           89.78980631734987       -4.47365605121734        0.44851157540965
H           91.64668114782290       -2.53930653344377        0.27738421784462
C           52.72777355660889        0.02798895940599       -0.02330196158777
C           51.50632574250383        0.01717157909574       -0.01907579696874
C           54.07826647619619        0.03571680490302       -0.02735588765587
C           55.29991573729398        0.04088978141764       -0.03092698455753
C           66.20058669644614        0.01574728916051       -0.06406401248382
C           64.97828249080764        0.01902276696615       -0.06385703872792
C           67.54975113867255        0.01109905724022       -0.06427130191278
C           68.77200198455031        0.00536087537002       -0.06252832341231
C           79.67095615129577       -0.06070235516221        0.00342784062198
C           78.44921402124790       -0.06000216845325       -0.00218849647427
C           81.02146506341224       -0.05551979177624        0.00913809740890
C           82.24297762273117       -0.04419662802227        0.01271856698631
Cu          60.13964028922341        0.03325373057189       -0.05133713586774
C           56.70645500382869        0.04051748191985       -0.03736648560278
C           57.35844519072668        1.10258061460332        0.61325800185266
C           56.68528785569083        2.14305702173972        1.32998595898572
C           57.64469975377509        2.96966648762353        1.81921446361030
C           58.91045613321617        2.44363590276602        1.39430009082857
N           58.70333742308160        1.30231492372928        0.66622537352462
C           60.15282061223601        3.00536880658471        1.69832707977494
C           60.15787782532930        4.28315076395296        2.45286201140561
C           60.76496329768943        4.36514383692904        3.70848900860655
C           60.76753272693377        5.55261408613890        4.41856693779608
C           60.16467930080756        6.68495989765905        3.87388701022508
O           60.18835661694929        7.83514879884815        4.59571612383311
C           59.55900586199986        6.61968445705871        2.62126082799834
C           59.55473708976724        5.42332414638509        1.92090276899659
C           61.38996980415531        2.45919289616671        1.34935363360684
C           62.66088033448791        3.07654311260306        1.59993994532618
C           63.61274833424920        2.24188999928161        1.10949319325262
N           61.58685317401227        1.26825437954086        0.70159395324409
C           62.92985842671771        1.11565307658529        0.54855073043518
C           63.57320168826470        0.02344253180806       -0.06139848822747
C           62.92044733846282       -1.06428431225187       -0.66926775745368
C           63.59376944406525       -2.19275553642025       -1.23737213792773
C           62.63441922907614       -3.02038937031302       -1.72518369767299
C           61.36849942274957       -2.39705719895009       -1.46453389922397
N           61.57577201884642       -1.20892607105447       -0.81488146877046
C           60.12622597782457       -2.93627100117309       -1.80553821413778
C           60.11797485821410       -4.21228137549256       -2.56317665226804
C           59.51454445669120       -5.35060100109766       -2.02761387967457
C           59.50206278638380       -6.54427959514057       -2.73238407937073
C           60.09090479370087       -6.60852868281772       -3.99306928137189
O           60.09633972488088       -7.75582356852135       -4.72005124543570
C           60.69513408750097       -5.47839574612302       -4.54069379266004
C           60.70949058779340       -4.29361141272131       -3.82615969871055
C           58.88890516273989       -2.36953291377573       -1.49059789132105
C           57.61752219657804       -2.89014132977586       -1.90518598229531
C           56.66561556732500       -2.06058543504744       -1.40646350302057
C           57.34899149561337       -1.02348401685265       -0.69448181774682
N           58.69254232026525       -1.22822622698561       -0.75952867261116
H           55.61607571918667        2.21703659078521        1.44863916989384
H           57.51045550585668        3.84873427527766        2.42855138904462
H           61.22301711416770        3.48120145131447        4.13799495781188
H           61.23081063599115        5.61684827587247        5.39535756124642
H           59.74045973812120        8.55311691096654        4.12859695063772
H           59.09469416491144        7.50458493976805        2.19929439030502
H           59.09351141031983        5.37704828105258        0.94060390376191
H           62.80333727245620        4.03377401252199        2.07478381747741
H           64.68295795122798        2.37376959717785        1.11420768597015
H           64.66319932433473       -2.33050002523075       -1.24870560892803
H           62.76847123528054       -3.97659973523096       -2.20456501118543
H           59.06587537975413       -5.30484033342143       -1.04149651909687
H           59.03725295625661       -7.42770368814214       -2.30790809257688
H           59.64713563884391       -8.47164446786085       -4.25092012403353
H           61.14554051486278       -5.54193524363085       -5.52353108224326
H           61.16809717611689       -3.41110274541607       -4.25804246907379
H           57.47443457340218       -3.76800072485172       -2.51424165304011
H           55.59517253504909       -2.13064566854197       -1.51592359894347
Cu          73.60991188624945       -0.02832826604238       -0.03187361012800
C           70.17696014028274       -0.00264970714913       -0.05644417314960
C           70.82855976704964        1.04213655135850        0.62360528852517
C           70.15465926015170        2.07202973814455        1.35444249358054
C           71.11320704797768        2.89583485275430        1.85049173721919
C           72.37904727858901        2.37820769410819        1.41634327201820
N           72.17301530294085        1.24216501796707        0.67900860921735
C           73.62015869629958        2.94736282138908        1.71033231078958
C           73.62596412185988        4.22600595498491        2.46287057416448
C           74.25231616674995        4.31450099586823        3.70864595118607
C           74.25879794599206        5.50342757358388        4.41612311533904
C           73.64095973510017        6.63105740337266        3.87842636676991
O           73.67018923390914        7.78312110406958        4.59679357410381
C           73.01537653770868        6.55912694268388        2.63596531656871
C           73.00698646902634        5.36117905430363        1.93841987546688
C           74.85729023552136        2.40750449005746        1.35067170405473
C           76.12658747722493        3.03560573399055        1.58168054179865
C           77.07943067408137        2.19747958770737        1.09917203037050
N           75.05524159097169        1.20854886339849        0.71895957187982
C           76.39867838023358        1.05784540927767        0.56328517577116
C           77.04279601868795       -0.05331454253020       -0.00885029266132
C           76.39072110978918       -1.15591774519595       -0.58820681835163
C           77.06186079983712       -2.30569480907767       -1.11433671385455
C           76.10338656291316       -3.12985370324642       -1.60977034613324
C           74.84050772327797       -2.48259245368105       -1.39702180235668
N           75.04742708075042       -1.28691714399702       -0.76208425127764
C           73.60076614629801       -3.00206595425765       -1.77728382067330
C           73.59807829561876       -4.27709122512006       -2.53598819422668
C           72.95174313397322       -5.40503268971333       -2.02927714453643
C           72.94980266995816       -6.59783283969468       -2.73573756250145
C           73.59235427294948       -6.67159438883994       -3.96940592109755
O           73.61118829945040       -7.81841323052948       -4.69662363449134
C           74.23860387982010       -5.55140203321186       -4.48890650354538
C           74.24216980326358       -4.36779874621931       -3.77258413695878
C           72.36431982383920       -2.41374016388297       -1.50194235668798
C           71.09742197712768       -2.91020987398984       -1.95721645556239
C           70.14425402024268       -2.07310208121152       -1.47320424386874
C           70.82276394326274       -1.05555636305293       -0.72951915344710
N           72.16465685318589       -1.27613540130494       -0.76517770090164
H           69.08549263348139        2.14288082931194        1.47540559081650
H           70.97837134076127        3.76788944624701        2.46970920389910
H           74.72272719929073        3.43434692140357        4.13259136743854
H           74.73720943399601        5.57266995731033        5.38523571918671
H           73.21411247553253        8.49866630312142        4.13384668181269
H           72.53938326423244        7.44036543564301        2.21939600406436
H           72.53076319275335        5.30998054958354        0.96558112840043
H           76.26717090411094        4.00127379296862        2.03968151748351
H           78.14897498495230        2.33450890859462        1.09480709934327
H           78.12913600854964       -2.45843935361180       -1.09485822260447
H           76.23576968083250       -4.09792053646883       -2.06518163943331
H           72.46179798867512       -5.35271247085247       -1.06335708010331
H           72.45191681586293       -7.47353502848261       -2.33318357288215
H           73.13246154456137       -8.52797793812197       -4.24755306687936
H           74.73061057013682       -5.62199084572991       -5.45116623223257
H           74.73470515185485       -3.49300749882219       -4.18248630534916
H           70.95851565858916       -3.77827152512670       -2.58113457087545
H           69.07614943253242       -2.12660303024836       -1.61117734694283
