120
 energy: -217.503874452402 gnorm: 0.000370883404 xtb: 6.5.1 (b24c23e)
Cu          15.56037141313694       -0.05616249083795       -0.00563579548281
C           12.15543267604907       -0.09054572530377       -0.10000826332501
C           12.78936256659956       -1.32202169865787       -0.03040943247183
C           12.11275910123945       -2.58486537146204        0.04664406011046
C           13.07045415643132       -3.54128860168060        0.13279907099225
C           14.34219172423943       -2.87148635503561        0.09734698999076
N           14.13960567348004       -1.52458447254267        0.00394941847646
C           15.58588363306754       -3.50307397838661        0.17729410021521
C           15.59619413652445       -4.98476662207513        0.27224711498162
C           15.08037672132694       -5.76708139139639       -0.76109228749719
C           15.08489242668385       -7.15080118490625       -0.67230558915168
C           15.60319619638661       -7.76858012612773        0.46331898492632
O           15.62188661086134       -9.12055240180273        0.59440677979733
C           16.12001391026564       -6.99862947619656        1.50365645211690
C           16.11760820429173       -5.61868364102366        1.40256786287573
C           16.81848104408190       -2.84708533902141        0.17866949264238
C           18.09601371395716       -3.50112464559794        0.20549419749034
C           19.04254235836196       -2.52884533696348        0.17359394149538
N           17.00792928916691       -1.49132601811261        0.12061010824671
C           18.35167426219191       -1.27563467969193        0.12074160888995
C           18.98823374843242       -0.02337543654607        0.06084025455265
C           18.33096916630057        1.21744170317786       -0.01232793258028
C           19.00040212155862        2.48031520522071       -0.09929265455062
C           18.03738575033419        3.43504586367934       -0.15797936267193
C           16.77119325063627        2.76117223942310       -0.10009195101623
N           16.98379700235947        1.40998827433471       -0.02089746463062
C           15.52667832423622        3.39299468782927       -0.14675274507212
C           15.51068194186889        4.87642050793815       -0.19712641814741
C           16.05138218802571        5.62875822421009        0.84844371890390
C           16.03059523294213        7.01178508002574        0.81154556075695
C           15.47002015309293        7.66559189647976       -0.28409182239417
O           15.46721562549344        9.02395414503100       -0.28919779127005
C           14.93141446573335        6.92906769983781       -1.33641425565531
C           14.95106854045958        5.54365157348645       -1.28710087834848
C           14.29404804123413        2.73469837316428       -0.14971963453597
C           13.01058450037177        3.38270413086897       -0.15626720629857
C           12.06979060515402        2.40584341647075       -0.15305693171743
C           12.76852151644842        1.15303378867398       -0.13150548911902
N           14.11522546284690        1.38134217250958       -0.12523383342774
H           11.07035190827089       -0.10009490480285       -0.11461139334073
H           11.04119534266517       -2.70903824328122        0.04394386249269
H           12.93393539859398       -4.60675462868159        0.22565494783739
H           14.68737982186954       -5.28779215532814       -1.65089355861439
H           14.68841730563329       -7.75428227333063       -1.48191058783518
H           15.24316460231154       -9.55459150909812       -0.18186730326420
H           16.51602857770255       -7.49246268867313        2.38239364927088
H           16.50840862778673       -5.01925050500125        2.21720424695821
H           18.24589450970986       -4.56838522966916        0.23011899409195
H           20.11500751019198       -2.64097249591708        0.17905417964836
H           20.07076577951596        2.60975856573155       -0.11887513902149
H           18.16927176751423        4.50118184784611       -0.24787510573448
H           16.47595941506638        5.12054438945046        1.70702802109429
H           16.44259581379936        7.59728365856440        1.62416812016093
H           15.05523293604698        9.37180296770666       -1.09141297820116
H           14.50010170664301        7.44205841442207       -2.18939899257663
H           14.54246333099860        4.97171517110525       -2.11284087306893
H           12.85505509507041        4.44957067623537       -0.14960592254328
H           10.99614913386298        2.51045947222384       -0.15526187561126
Cu          29.02321804936197        0.05532581060072       -0.01328847401732
C           32.42815300410938        0.07632247622800       -0.10906458637358
C           31.79402377165583        1.30445972724118       -0.22214231079028
C           32.47042883598593        2.56481686082368       -0.33396580776746
C           31.51264985709356        3.52348458520751       -0.38825554326456
C           30.24103941833238        2.85588068201333       -0.32116650911278
N           30.44378691249020        1.50987201321259       -0.21582802218397
C           28.99747729507349        3.49265214837444       -0.32898203458616
C           28.98714492237991        4.97274950661359       -0.44733562820994
C           29.49542902928414        5.59906921309085       -1.58535462082189
C           29.49110319982342        6.98132591349951       -1.69496469156608
C           28.98070357510680        7.75525884120550       -0.65554436186708
O           28.96262886202157        9.11212361644419       -0.71861621704358
C           28.47134314431878        7.14210852597709        0.48760946171220
C           28.47342283033427        5.76186634497497        0.58449391939372
C           27.76504926079312        2.84413296260572       -0.22868476320198
C           26.48751666831888        3.49590512580367       -0.28968430853396
C           25.54103533795658        2.52919173823649       -0.18065754659610
N           27.57559840375573        1.49388518004028       -0.09361866431663
C           26.23191923361658        1.28080319750009       -0.05867320754891
C           25.59541519890462        0.03257800634313        0.05836909586375
C           26.25272480005646       -1.20625976770656        0.15953304235937
C           25.58330994002202       -2.46897007978520        0.24859106275860
C           26.54631118081076       -3.42234903290017        0.32646795905432
C           27.81249145338255       -2.74681649947928        0.29262324273219
N           27.59991080566561       -1.39794517018159        0.18056183958045
C           29.05704407866409       -3.37861486831539        0.34049418598085
C           29.07284820417242       -4.85384091897650        0.50323215722482
C           28.52402687545069       -5.44880168147295        1.64189204221335
C           28.54447904704912       -6.82276208331713        1.80404329320778
C           29.11317165327277       -7.62668291521465        0.81792003874278
O           29.11561502400432       -8.97168011268020        1.00796930029284
C           29.65995437697801       -7.04843372751385       -0.32514790713821
C           29.64033146541234       -5.67031404049664       -0.47545181874128
C           30.28979802924519       -2.72702593185276        0.24753130599117
C           31.57331131026676       -3.36842545035245        0.33948171107374
C           32.51406685979840       -2.40094385618800        0.20403600001822
C           31.81524085328975       -1.15867051314248        0.04098320974168
N           30.46853432485916       -1.38431293683349        0.07632560454669
H           33.51325151947430        0.08394411686786       -0.12360497963189
H           33.54194529194312        2.68717609460092       -0.35752181478505
H           31.64903846829024        4.59092425280994       -0.45490446683126
H           29.88249624786731        4.99739556513403       -2.40026236277523
H           29.88181574765193        7.46279756820187       -2.58511525680018
H           29.33594400746902        9.43061961412980       -1.55141071672929
H           28.08121959937473        7.75660104207541        1.28953288423718
H           28.08838532584137        5.28504970269228        1.47896205953008
H           26.33759427328994        4.55605421534394       -0.41508857918109
H           24.46857998300103        2.64138872653380       -0.18698714681324
H           24.51297932855428       -2.60008566686292        0.24473592270509
H           26.41435266383143       -4.49059297744555        0.38605953557588
H           28.09335328459706       -4.82293041174696        2.41553046239993
H           28.12604808766786       -7.28582258843916        2.68913797277457
H           29.53395852772938       -9.43080315147413        0.26738192765992
H           30.09756820920099       -7.67824912387761       -1.09234998726646
H           30.05512139443931       -5.22266357107459       -1.37182023398179
H           31.72899041872401       -4.42291358520866        0.50152778032681
H           33.58771078045083       -2.50422485149610        0.22069013313584
C           21.61664711010205       -0.00101549307150        0.06867910410369
C           20.39489632374881       -0.01158174698114        0.06587583844556
C           22.96695835285432        0.00985539700402        0.06814765466123
C           24.18874892162807        0.02166946416552        0.06502655058523
