191
 energy: -347.779593273093 gnorm: 0.000993290773 xtb: 6.5.1 (b24c23e)
Co          29.52783452301524        0.00931831359599       -0.01937711031080
C           26.15596794112388        0.06258067221413       -0.13614968607116
C           26.83304750114130        1.25932564882558       -0.22833361326958
C           26.18631427419627        2.52915989221121       -0.36301406205322
C           27.14543357620117        3.47120960452789       -0.20791863848634
C           28.37973314619066        2.77496928188073        0.01140035384973
N           28.18414866993528        1.41899046054315       -0.04733982704829
C           29.56200145068530        3.39148122265482        0.39927606077656
C           29.57712064694336        4.86126602442051        0.58657504348224
C           29.78024255145317        5.41049256723160        1.85543085693968
C           29.79513350968401        6.78163011544815        2.02603914124105
C           29.61251173117120        7.63295693728143        0.93134345335847
C           29.63726058654047        9.09268640005593        1.13868648744449
O           29.80859438813456        9.61324456571864        2.21099183532237
C           29.41141280965209        7.08384809194726       -0.33719569389082
C           29.39152800104056        5.71073804582379       -0.50684507575592
C           30.73182139181106        2.67772259666998        0.60765171005964
C           31.98144324132507        3.27811661303143        0.96805551474013
C           32.92649371798277        2.31563942169313        0.84802317353995
N           30.90728510330356        1.34381496765209        0.31454689745755
C           32.25300140042839        1.13236338455152        0.41496022877342
C           32.92089997167172       -0.03128025078011        0.02391425512324
C           32.23269161837750       -1.18559219270316       -0.35783888861222
C           32.88296034725610       -2.38585268739515       -0.77927816026640
C           31.91981916488760       -3.33266960893668       -0.88325527940674
C           30.68474866637100       -2.70670939723802       -0.51754429187590
N           30.88256913046080       -1.37031610222059       -0.25633282698094
C           29.48442495920358       -3.38415593503650       -0.36265878248019
C           29.46751891450167       -4.85543529919785       -0.51581662756246
C           28.66837463002615       -5.45402222126103       -1.49400001014170
C           28.65806144576059       -6.82907460838094       -1.64557332595653
C           29.44288201491477       -7.63428259421642       -0.81666034817791
C           29.44948033786620       -9.10218210393157       -0.95749961822667
O           30.10680528937785       -9.83751503821722       -0.26644020194572
C           30.23950994765183       -7.03592569627297        0.16517921349217
C           30.25435626347249       -5.66234378209597        0.31184599967320
C           28.29748175587534       -2.71892545121158       -0.08347752726844
C           27.03628309555551       -3.37110054025772        0.11673767406296
C           26.09667002395257       -2.39792006993446        0.16636103510581
C           26.78685315266583       -1.15333077717171        0.01469791025942
N           28.14098502054805       -1.35678439275640       -0.07698416278782
H           25.07312571387261        0.07986602734801       -0.17206057649310
H           25.12948956242181        2.66140759140807       -0.53149216867334
H           27.03691897530829        4.54356330287012       -0.21718908684758
H           29.91172366511886        4.75239488758190        2.70682808782586
H           29.94725423606052        7.21747346307811        3.00764120822738
H           29.48366987003127        9.68720940138679        0.21282921639430
H           29.27254031710277        7.73743797640670       -1.19223993355019
H           29.24746780582732        5.28645658952099       -1.49406801608137
H           32.11110936177032        4.30997240872129        1.25070825199121
H           33.98861093963860        2.38781559687078        1.01782543089043
H           33.94191200999506       -2.47752333349344       -0.95904869197009
H           32.02459502774450       -4.36319856228916       -1.18082231908136
H           28.06891391094602       -4.83081378082232       -2.14800274374165
H           28.04047401990152       -7.28485440563134       -2.41262986379066
H           28.78931968606360       -9.48549630960382       -1.76475395910455
H           30.84282873787663       -7.66942523221121        0.80655901688822
H           30.86434038896933       -5.20207408917172        1.08087080255389
H           26.90152498595738       -4.43702725257218        0.20354082890517
H           25.02974650154931       -2.49351876379842        0.28992153883482
Co          61.43688534384507       -0.02943116536491       -0.06312800355514
C           64.81142457789011       -0.06508459990992       -0.18390950843632
C           64.13575552030672       -1.24041139542400       -0.42940786144905
C           64.78730592298481       -2.48151674450340       -0.71925544066061
C           63.82977826875459       -3.43720437768098       -0.69366484153170
C           62.59111998160426       -2.77630939594799       -0.40163730599697
N           62.78360863969986       -1.42375777698770       -0.28066220834099
C           61.40305298515764       -3.43991764006557       -0.12764142111719
C           61.38730142930949       -4.92155207961044       -0.14195173638245
C           61.14846031112419       -5.63635010005857        1.03499488293360
C           61.13020920226776       -7.01786542046617        1.01901593958654
C           61.34570707134085       -7.71456274141958       -0.17459938244798
C           61.31503656524051       -9.18870632339699       -0.16693315463629
O           61.11045243714629       -9.84867052485662        0.81944134470531
C           61.58347912989444       -7.00009069833058       -1.35112223462955
C           61.60603657663221       -5.61667431706708       -1.33382612247295
C           60.22572566830176       -2.76194251864880        0.14737408516527
C           58.96990520238260       -3.40984450656133        0.38195047003496
C           58.02489648944920       -2.44025335968669        0.38681990255705
N           60.05319590088705       -1.39929495919571        0.05247104125841
C           58.70460144030430       -1.20487930340415        0.15655981994765
C           58.04088298653823        0.00736153226393       -0.04436849674483
C           58.73072402193819        1.20788801333202       -0.22320621603645
C           58.08062999005021        2.46090106275918       -0.44325788369454
C           59.04407981765365        3.41146675946060       -0.39368593477611
C           60.27935718627997        2.73385924523488       -0.13719556417602
N           60.08153224933072        1.37303016213099       -0.09295069942758
C           61.48136113524846        3.37961539732644        0.11129765350888
C           61.49692433350788        4.85719315983716        0.18815574704888
C           62.27968557511213        5.60238363270612       -0.69818319320186
C           62.28876251059869        6.98427724878415       -0.63336054943234
C           61.51891442115163        7.64887711919516        0.32427267444658
C           61.51172673833895        9.12074418368878        0.41463086879778
O           60.86737298401918        9.73842335804573        1.22344584683745
C           60.73822954795395        6.90326860370172        1.21384857055577
C           60.72469408423920        5.52360195562905        1.14454864568605
C           62.67015409806251        2.68094991220217        0.27305377428348
C           63.93369576328912        3.29852314491855        0.55273560939141
C           64.87313739115004        2.32954556394561        0.45102971454786
C           64.18054449820890        1.11899133464377        0.12987587588019
N           62.82583570009543        1.33219513082906        0.07895164962938
H           65.89422893872543       -0.07655996359862       -0.22304624502424
H           65.84605141214291       -2.58920433155766       -0.89308667463531
H           63.94163512976868       -4.49950928235354       -0.83779666241858
H           60.99100217911811       -5.09847283047810        1.96297031392105
H           60.94963305742531       -7.58144397679007        1.92808135536930
H           61.49747094663103       -9.65353045103868       -1.15935710272826
H           61.74823500663598       -7.53300813859715       -2.28193380348764
H           61.77763324138984       -5.06389654690376       -2.25053973958436
H           58.83693751862501       -4.47264915034838        0.50086782215670
H           56.95936564939186       -2.53700394103631        0.51859516286152
H           57.02153804731520        2.58061838404039       -0.60480295004634
H           58.93982263480978        4.47664024780806       -0.52022893704779
H           62.86732717798537        5.08994870143643       -1.45149067272283
H           62.89336862008024        7.55531936387122       -1.33040336767175
H           62.15808657199518        9.62631921052955       -0.33445738688149
H           60.14639057534970        7.42783229568952        1.95629851590987
H           60.12706105575279        4.94776926082978        1.84210862797625
H           64.06981915193255        4.34077298807539        0.79155949129030
H           65.94130904927758        2.40694582005511        0.57660200161645
C           38.11933313345209       -0.05204057862998       -0.00613473728945
C           36.88995715327556       -0.05217878164178        0.00116102603656
C           35.54743408051955       -0.04813978574331        0.00996426602786
C           34.32290849694746       -0.04127671886016        0.01825231585674
C           39.46154487950910       -0.04990632597142       -0.01074674884785
C           40.68646964870065       -0.04533480097538       -0.01162065625572
C           54.06976466930878        0.02989362211637       -0.06547346837708
C           52.84092061842898        0.03063057749471       -0.06186687059530
C           51.49769794179027        0.02285841960316       -0.05800392468443
C           50.27328898426019        0.01653767373376       -0.05069156354314
C           55.41342132040427        0.02614575043552       -0.06222774434640
C           56.63742551058129        0.01942511455455       -0.05485101731806
Co          45.47929680576414       -0.01275948125634       -0.03548205038902
C           42.08690829216896       -0.03891806059002       -0.00875295893569
C           42.76281791040493        1.18399624898900        0.05812297954356
C           42.10768438210280        2.45265209400764        0.08365033221605
C           43.05749495250281        3.37360609061809        0.38038796885916
C           44.28703612135779        2.65911500347671        0.54268335606141
N           44.10374756989182        1.32271282325818        0.27718393065118
C           45.46203473074486        3.21652319856604        1.02946790924307
C           45.45228733954593        4.62423372263411        1.48247458971718
C           46.30102005275541        5.56479239896201        0.89086372895029
C           46.28511443075130        6.88031603873322        1.31231863408071
C           45.42667484801093        7.28389965823913        2.34009594967007
C           45.43149435458236        8.69381944561451        2.77371325700413
O           46.13571716040074        9.53993067607824        2.28643239181552
C           44.58122905771849        6.34430913899798        2.93443497440833
C           44.59119848972846        5.02877976625906        2.50634933225814
C           46.64561889416701        2.49380622763680        1.09642790410888
C           47.87456169653880        3.00188985338556        1.62671723067518
C           48.83604378574194        2.09856158602760        1.31570660027215
N           46.84027663538333        1.25042966385867        0.54164999221055
C           48.18809871010717        1.03793833984167        0.61183849695645
C           48.87176597699812        0.00526419537257       -0.03708703011277
C           48.19269017813989       -1.04268294750436       -0.66650463932777
C           48.84303148196307       -2.09864174998730       -1.37446988487523
C           47.89270486079116       -3.02719937085579       -1.64482032080713
C           46.66791939805987       -2.53591883366274       -1.09071276433045
N           46.85330043447181       -1.28558739371505       -0.55069318394897
C           45.49624091120492       -3.27558329095834       -0.99317814256429
C           45.50393109376014       -4.69031872313795       -1.42327751264241
C           46.37989739393703       -5.60379754516963       -0.83005172843947
C           46.38603823519610       -6.92864525729847       -1.22854263227456
C           45.52109282714638       -7.36474284905034       -2.23488525522956
C           45.51036518343017       -8.77050949101605       -2.68133833403140
O           44.78701699129656       -9.19073295273420       -3.54702520893004
C           44.64773663290632       -6.44990461856556       -2.83201684858372
C           44.63642700332593       -5.12877727258441       -2.42858956917786
C           44.31719164557816       -2.72359449036160       -0.51141942939884
C           43.09291608278073       -3.44729447531001       -0.34657012761621
C           42.13142836328735       -2.53037454784252       -0.07835957468691
C           42.77496262098255       -1.25536405319941       -0.06502474057723
N           44.12051346720246       -1.38543871842656       -0.26006104705118
H           41.05501695934300        2.60217457255240       -0.09437738657010
H           42.94577928252331        4.44075603659073        0.48230886991148
H           46.95868676123163        5.25743234057063        0.08574728865355
H           46.93495391515413        7.61797692551965        0.85396122893617
H           44.72304675226797        8.91966596482725        3.59868755322938
H           43.91446457073364        6.64842088433645        3.73473704644359
H           43.94182097449148        4.29896499240910        2.97658305857953
H           47.97833665364152        3.93207686391605        2.16103861145183
H           49.89203054545786        2.13629926552451        1.52931882129636
H           49.89305566361209       -2.11703663295778       -1.61789012199578
H           48.00137933909348       -3.96188634142407       -2.17038800669050
H           47.04392861534205       -5.27055521841460       -0.04044357368449
H           47.06463897011950       -7.63260749844111       -0.75789096194228
H           46.23393300757333       -9.42377276886530       -2.14892207865541
H           43.98250342312116       -6.79683247107256       -3.61543499303877
H           43.96726992387344       -4.41928781708320       -2.90203945855207
H           42.99175846389974       -4.51683075031154       -0.43202946675872
H           41.07802844830075       -2.68639838705379        0.08933790215854
