420
 energy: -730.067105321082 gnorm: 0.000624925183 xtb: 6.5.1 (b24c23e)
C          106.06088323505114       -0.01004207236671       -0.06456392944496
C          106.67083271030764        0.73839229153909       -1.06479501664021
C          106.02938054283156        1.50540348985675       -2.07596822683087
C          107.00196210006581        2.07900904159099       -2.84838673871656
C          108.26301377623349        1.67745386848636       -2.33139015015900
N          108.01784659792733        0.87316885294857       -1.26006534448579
C          109.53348207395038        2.03259429456953       -2.81877646019705
C          109.56126717824762        2.88695078812810       -3.94338478220389
C          109.58084060176979        3.62438521349393       -4.90691666124502
C          109.61157832701420        4.48562702020051       -6.02734755824186
C          108.43194235712998        4.91396555671250       -6.64735532236895
C          108.51756724942099        5.75877706388323       -7.73957640384915
N          109.67389125092969        6.19066969900586       -8.23644448481074
C          110.79977938201651        5.78817467306925       -7.65257603990842
C          110.82369889530034        4.94404844315357       -6.55680358227622
C          110.76021596196156        1.61306013909130       -2.27869598907145
C          112.04415079335573        2.01093796622215       -2.82123232766990
C          112.98131654474017        1.42461115371565       -2.04694031212093
N          110.92966407588260        0.80539308057147       -1.20369045249687
C          112.26507317828330        0.67140314091444       -1.03573320934590
C          112.91045591544614       -0.06345699073265       -0.02441316586248
C          112.27575336378888       -0.79608334993293        0.99656036369692
C          112.90912535615549       -1.55639788160401        2.01374744170898
C          111.93182018100909       -2.12790978838969        2.78320416727059
C          110.67572733045567       -1.73324935542778        2.25400618051130
N          110.92989566371534       -0.92925950923892        1.17979423977650
C          109.40642455360958       -2.10189423506757        2.73368936048310
C          109.37880592133331       -2.95619580606944        3.85713258398797
C          109.35827716232214       -3.69588472009834        4.81920804259791
C          109.33147579504499       -4.56067031556100        5.93662703895159
C          110.51472690699359       -5.01590113961919        6.53061386540026
C          110.43428608430254       -5.86319395023273        7.62123756328735
N          109.27970097058940       -6.27238470131032        8.14100961821033
C          108.15048122310867       -5.84371989580668        7.58249151712614
C          108.12127290845430       -4.99552565063614        6.49001755081996
C          108.17854385793994       -1.69351325412978        2.18279742026435
C          106.88740824001715       -2.09649389684672        2.71269557633619
C          105.95697230983950       -1.51131045820101        1.93132674584331
C          106.68293431460357       -0.75436376094170        0.92629582364604
N          108.02313915265297       -0.89000936442939        1.11194570339119
H          104.97565420133927       -0.00468348856070       -0.06744991635311
H          104.96102055143744        1.59941821264818       -2.18748814473235
H          106.86820936405589        2.72384452688232       -3.70215281016997
H          108.73346330622094        0.43689162836106       -0.68845418447862
H          107.46864178532296        4.58684099858776       -6.27491600449158
H          107.61838168547428        6.10653981607085       -8.23993955734910
H          111.72522942785011        6.15931598858060       -8.08354872947342
H          111.76384569808350        4.64093002726027       -6.11200286978135
H          112.18081289029959        2.65295856867935       -3.67672171740464
H          114.05470383016051        1.48641722845006       -2.12717528228039
H          113.97591846497934       -1.65397995387582        2.13274130482748
H          112.06176886867432       -2.76861552894332        3.64045943256245
H          110.21773793491525       -0.49993095752363        0.59835458249691
H          111.47667855928812       -4.70755697258554        6.13912783685009
H          111.33627157178211       -6.23177986230307        8.10133330136252
H          107.22669060246815       -6.19671304506776        8.03181923479911
H          107.17857985225291       -4.67091440602742        6.06631195465733
H          106.74569421147874       -2.73911003181464        3.56714100297766
H          104.88199298362829       -1.56697357650745        2.00095649572559
C          178.72646064074490       -0.15770428499959        0.03980694213683
C          178.12809582352028       -0.83784563452786        1.09432301490950
C          178.78090191701250       -1.53250202765191        2.14948354725866
C          177.81692244546622       -2.05758340697684        2.96598659363974
C          176.55011174623158       -1.69798900335278        2.43253325502726
N          176.78325151080145       -0.96520756724731        1.30858426178553
C          175.28508581656945       -2.03057123088515        2.94913464330153
C          175.26972322329379       -2.80769119036536        4.12872253657271
C          175.25849979776859       -3.47611031696243        5.14149551926032
C          175.23425761723078       -4.25534285692240        6.32058588489248
C          176.41690987493106       -4.69574492959271        6.92629571264487
C          176.33630397736715       -5.45808621375009        8.07801288912483
N          175.18217379273315       -5.79777971528166        8.64638162412102
C          174.05341452952123       -5.38259773442915        8.07695285578541
C          174.02445429841245       -4.61712989226251        6.92501215553518
C          174.05176996812224       -1.66004125965488        2.38875623419340
C          172.77507788504312       -2.04615547297635        2.95610500776195
C          171.82790501024638       -1.51800456897637        2.15275908953669
N          173.86792510640791       -0.91586940709606        1.27082972236701
C          172.53038667111639       -0.80857569448100        1.10129485975994
C          171.87145269972604       -0.12608248936770        0.06169342844031
C          172.49563861938978        0.56254492731179       -0.99636454595004
C          171.85226226321046        1.27753151774213       -2.03954612303037
C          172.82136024263943        1.80233718944495       -2.85146404774967
C          174.08258876240112        1.42429983645106       -2.32266934104988
N          173.83944750763010        0.67925759886186       -1.20418546077215
C          175.34614916318756        1.75218790449802       -2.84508668304711
C          175.36139108246317        2.52733369454375       -4.02479250045693
C          175.37514772753414        3.19199004267529       -5.04031195920726
C          175.39741647755989        3.96342265593875       -6.22420310278685
C          174.21313631796696        4.38682990763223       -6.83909804537351
C          174.29147211990301        5.13918740322406       -7.99746312745732
N          175.44478864595524        5.48521975797762       -8.56377076599744
C          176.57505401739809        5.08712589629487       -7.98509524323715
C          176.60636463398768        4.33246631820401       -6.82616696892847
C          176.58077748970609        1.37336748184283       -2.28818837886199
C          177.86505914135432        1.73603787156892       -2.86207593419064
C          178.80536289997920        1.20296721913565       -2.05564764173750
C          178.09225120029618        0.51703591060353       -0.99222921499660
N          176.74972796866965        0.64240116377087       -1.16860645555438
H          179.81165821534773       -0.16124714906311        0.03176800493099
H          179.85052131217654       -1.61399870738820        2.25872692770512
H          177.96016571644040       -2.64356494306939        3.85969233054199
H          176.06146319755598       -0.57052139055036        0.71492998263941
H          177.37858905271938       -4.44215095635049        6.49681016172225
H          177.23789066185535       -5.81347147359915        8.56866784031710
H          173.12989640105454       -5.67754013164138        8.56687654466210
H          173.08225416946703       -4.30049706410001        6.49422951181578
H          172.64946406706326       -2.64274251860835        3.84550361177887
H          170.75595305156926       -1.59349355160126        2.23819559411821
H          170.78473761850827        1.37925110825931       -2.14633638366390
H          172.68255298650175        2.40121613494281       -3.73708411002651
H          174.55738915474075        0.27412326251900       -0.61261171197323
H          173.25203113215974        4.12741753535862       -6.41172788574229
H          173.38864432119780        5.48071740442912       -8.49562385407227
H          177.49780811642782        5.38699764951168       -8.47343276025748
H          177.54967617050801        4.02941069487089       -6.38813280315042
H          177.99600702998003        2.31934445630814       -3.75968795486868
H          179.87934761608741        1.25137036491524       -2.14357772224097
C          114.32052495714836       -0.07625564527744       -0.02017899348630
C          115.53707524376161       -0.08859365156191       -0.01285798425870
C          125.28406707184318       -0.13717270341307        0.00552320944330
C          126.50143326202205       -0.13584803818752        0.01130846283076
C          136.27101057853477       -0.14182499639759        0.03979202708517
C          137.48936657146501       -0.13813988781699        0.04414529276481
C          147.27600097975744       -0.13547511695816        0.05738204853990
C          148.49469460290297       -0.13285390015579        0.05948930260412
C          158.27149660178225       -0.11156613737097        0.06877643211650
C          159.48923448003541       -0.10750999532429        0.07247467902213
C          169.24476090016179       -0.11970893455579        0.06172902674813
C          170.46176940967473       -0.12330148147315        0.06606080731580
C          116.94646370043277       -0.10050923096233       -0.01132058581679
C          117.57873877875758        0.00609332716263       -1.26507218466971
C          116.94764088251311        0.10128089569865       -2.53119641887599
C          117.92793020754550        0.16929165041881       -3.48523911452013
C          119.18170843287014        0.11513619482929       -2.82454431176149
N          118.92533204948806        0.01705540265158       -1.48761111052697
C          120.45177723689929        0.15693061569749       -3.42930721259271
C          120.46912341208404        0.26388214372413       -4.83809290818592
C          120.48206489805612        0.35060360632447       -6.04850788772515
C          120.50513428964892        0.45047103872127       -7.45827240904085
C          121.71446816400150        0.49538585622087       -8.16204565543216
C          121.68360354912622        0.59193523023960       -9.54175513550503
N          120.55343503354987        0.64485382681724      -10.24214969289457
C          119.39972061604985        0.60283098311263       -9.58058922361295
C          119.32097378589286        0.50679100744090       -8.20266930073831
C          121.68623819662142        0.10239258822378       -2.76378210178688
C          122.95997265620460        0.17227980516115       -3.45246948710757
C          123.91161586824066        0.09255432911389       -2.49886397348204
N          121.87615009098542       -0.01781259046042       -1.42716937690937
C          123.21485193890085       -0.03057542247172       -1.23397149457684
C          123.87548192587521       -0.13561800376998        0.00406913825699
C          123.24184657086920       -0.23926514888998        1.25820065394230
C          123.87129833182578       -0.36698609229815        2.52211697655601
C          122.89052583878855       -0.44268890591405        3.47497486361588
C          121.63735820293775       -0.36747588793822        2.81533698555976
N          121.89521157043940       -0.24707190311890        1.48005469641331
C          120.36780663500386       -0.40671285467993        3.42075253335911
C          120.35044861239359       -0.51551500857145        4.82934488435310
C          120.33660307250588       -0.60396269179529        6.03961799256087
C          120.31135263884732       -0.70388552341750        7.44934809463889
C          119.10161413837243       -0.70998314134315        8.15383753732780
C          119.13018457313294       -0.80749349115801        9.53353737130186
N          120.25846021131615       -0.89733013473510       10.23320457426020
C          121.41251797336156       -0.89259865747074        9.57095587898082
C          121.49352975048831       -0.79852306093791        8.19303633444255
C          119.13268972523117       -0.34468086097831        2.75630217978829
C          117.85854674816055       -0.38506719372479        3.44683335979530
C          116.90712276177427       -0.30337876283275        2.49304984686060
C          117.60502339865259       -0.21518253713577        1.22577327309421
N          118.94400560037889       -0.24163345920198        1.41874479504650
H          115.88118243689534        0.11048188585747       -2.68676554475635
H          117.80015850659947        0.24806092789023       -4.55278404615140
H          119.63207402563837       -0.04412523072842       -0.76225664685714
H          122.65776278266597        0.45482926234446       -7.63088072372714
H          122.60665007993211        0.62855431728782      -10.11315146864733
H          118.49702641742144        0.64807679367225      -10.18305001976601
H          118.35966373094676        0.47522045612252       -7.70414488895861
H          123.08090536612349        0.27285047774968       -4.51920632364865
H          124.98301752117911        0.11924071111006       -2.61451666284765
H          124.93712942856924       -0.40184383128598        2.67703527497340
H          123.01768939690014       -0.54458356601988        4.54063160775454
H          121.18914609103965       -0.17590532937262        0.75493084368974
H          118.15983845075120       -0.63854093843740        7.62333870925858
H          118.20681664315232       -0.81387114797152       10.10551939093036
H          122.31365114488329       -0.96718830400646       10.17287161323587
H          122.45506922727279       -0.79797163633644        7.69394906765917
H          117.73723751697072       -0.46317181288430        4.51540939119037
H          115.83541454334070       -0.29510591738964        2.61038630510403
C          127.90980977416730       -0.13681755333796        0.01378562123675
C          128.54588761607457       -0.57590761946136       -1.16424715936335
C          127.92082018931748       -1.03450193222157       -2.35085660581802
C          128.90534737561555       -1.38110256965088       -3.23773418776988
C          130.15603687940953       -1.14675521955576       -2.61177037202774
N          129.89348649858246       -0.65904560376109       -1.36431033880142
C          131.42747729927299       -1.39176754242135       -3.16350361609047
C          131.44419253326754       -1.90562343197597       -4.47985413687625
C          131.45298853471130       -2.33904563790013       -5.61334340802423
C          131.46766134391055       -2.84325298603186       -6.93381130735341
C          132.67144240997013       -3.12947666162382       -7.58850391403256
C          132.63071640625662       -3.61973800102704       -8.88155549589171
N          131.49610037457941       -3.83552193144224       -9.54235239686180
C          130.34756044769742       -3.56592041044212       -8.92702759990195
C          130.27871278259934       -3.07315722033905       -7.63609494660167
C          132.66210343686384       -1.17884624882952       -2.53139103522438
C          133.93187136273457       -1.49386649267786       -3.15531902215433
C          134.88653907000648       -1.15356225412244       -2.26428498987254
N          132.85800132310376       -0.66369247930253       -1.29261129723464
C          134.19694336758698       -0.62657882884951       -1.10433334398600
C          134.86295945285733       -0.14298401239236        0.03853148645655
C          134.22392312959039        0.34647138534896        1.19619688962868
C          134.84559042734929        0.86277207820562        2.36027370656010
C          133.86065178649392        1.20569458527527        3.24782873256926
C          132.61153291717847        0.91280729307627        2.64426506057678
N          132.87624158427994        0.40067131788543        1.40658366520149
C          131.34089379298618        1.11339387312126        3.21516988378775
C          131.32524410303768        1.62881279094174        4.53084596859563
C          131.31598550502110        2.06349484940944        5.66385250359614
C          131.29958317458903        2.56793420006060        6.98418757636581
C          130.09454464445687        2.84393562209110        7.64087951326507
C          130.13329148037545        3.33400927352434        8.93405076913900
N          131.26713600561141        3.55838050771335        9.59329414119335
C          132.41685059202584        3.29840917900340        8.97609869509951
C          132.48770614742014        2.80731825262571        7.68467389880194
C          130.10495982914409        0.85478015141601        2.60260952966642
C          128.83312053584683        1.10621787296376        3.25140344839160
C          127.87864424433944        0.76087831627266        2.36191057402527
C          128.57193337805222        0.29666181414708        1.17711340547989
N          129.91137993562563        0.36549976460936        1.35385812436146
H          126.85540421933287       -1.09625882042311       -2.50001592797375
H          128.78183593030482       -1.76936679176869       -4.23580841459900
H          130.59582561147019       -0.39997684796903       -0.67942118821964
H          133.61813229937761       -2.96816192982060       -7.08718525443462
H          133.54926064041015       -3.85041380040412       -9.41346121221524
H          129.44096906263175       -3.75352267038472       -9.49513141970128
H          129.32140455846468       -2.86697499967694       -7.17272673535664
H          134.04845889717518       -1.92094646138693       -4.13848876905436
H          135.95576359984557       -1.24895459745201       -2.35685810340329
H          135.90935832984692        0.96350977090903        2.49570206560505
H          133.98295566803782        1.62740856921264        4.23237152491017
H          132.17502250074261        0.10237948477205        0.73667035337013
H          129.14843067376938        2.67524903866970        7.14091328169271
H          129.21376202473795        3.55720802836142        9.46731905291956
H          133.32274954310196        3.49276142353555        9.54304749732736
H          133.44592642029534        2.60911545561099        7.21970976431449
H          128.71523108867746        1.49776735378514        4.24911994304949
H          126.80748033582242        0.81371744268980        2.47048817607703
C          138.89716136409098       -0.13642544051939        0.04379090586942
C          139.53724805335816       -0.32837419804758       -1.19782199428927
C          138.91992819705550       -0.48961145746511       -2.46289972244084
C          139.90697237869165       -0.68964659178875       -3.39117621780618
C          141.15272315407756       -0.65068812794483       -2.71523775291743
N          140.88457302700212       -0.42011984226713       -1.39676161014504
C          142.42197597414605       -0.84968911745144       -3.29015071558718
C          142.43794825880295       -1.13509550364423       -4.67415536873116
C          142.44744579662108       -1.37436822164705       -5.86386305315920
C          142.46533146934931       -1.65028579267860       -7.25006245144231
C          143.66642229346922       -1.89797592166229       -7.92511279676917
C          143.62995373768086       -2.16085054838891       -9.28286441021243
N          142.50191736549885       -2.19055001325662       -9.98799630515403
C          141.35596659154780       -1.95630288223922       -9.35366780508109
C          141.28325022295681       -1.68411300679360       -7.99915971871616
C          143.65591788632909       -0.79000867763363       -2.62459041321122
C          144.92009910600191       -1.05501056002814       -3.28198022124003
C          145.87840217985720       -0.86259502580939       -2.35142537068870
N          143.85827863076113       -0.45655219508379       -1.32618331694011
C          145.19721082542532       -0.47393143096933       -1.13387886730050
C          145.86807124716427       -0.13395610094513        0.05722531543159
C          145.22685002088869        0.21183619085291        1.26487376024237
C          145.84323164405177        0.59001880977614        2.48319024107745
C          144.85628512327574        0.78970026538297        3.41149942011631
C          143.61088430389901        0.54348615346304        2.78026879567219
N          143.87941024871282        0.20944830656189        1.48407859926194
C          142.34213325522086        0.59798875484625        3.38734192966121
C          142.32748931365450        0.89547216452599        4.76880380325052
C          142.31773615543037        1.14705490304104        5.95597742747201
C          142.29830107674587        1.43608970107803        7.33947704853393
C          141.09283064303565        1.51620260771013        8.04664524125250
C          141.12776366811451        1.79932743538915        9.40034182984069
N          142.25835147463258        2.00142106867302       10.07231098138402
C          143.40842100123515        1.92708851388388        9.40735939055590
C          143.48293965545847        1.65023284197719        8.05387467277328
C          141.10740320134565        0.38316055924732        2.75613897409722
C          139.84245435039003        0.42060020143519        3.46287415039217
C          138.88415861199425        0.21211936126945        2.53571068918085
C          139.56670666562900        0.05523281326671        1.26782268358916
N          140.90570601363126        0.14757758841866        1.43659538316778
H          137.85785863809693       -0.45116532061991       -2.63801881740886
H          139.78806013408587       -0.84980534133641       -4.45057352144241
H          141.58235540780922       -0.33124435362810       -0.66554181853094
H          144.60772184705246       -1.88329365507603       -7.38911006245716
H          144.54653574337524       -2.35660456221087       -9.83186773551557
H          140.45484064058581       -1.98791395437552       -9.95929852126290
H          140.32828101230368       -1.49867278152034       -7.52239059835063
H          145.03106293550377       -1.35073315894761       -4.31291466763664
H          146.94495673386268       -0.97416741536390       -2.45384864050852
H          146.90489646866502        0.69923445764766        2.62680943585549
H          144.97502538969164        1.08233762909619        4.44220940642948
H          143.18182806508275       -0.01387862202276        0.78193679886615
H          140.14937828430288        1.35799663581355        7.53827499311218
H          140.20780925861914        1.86738799966816        9.97379755848681
H          144.31160409864449        2.09706609494464        9.98636339280394
H          144.44134422741448        1.59872317339549        7.55144838108648
H          139.73105610431327        0.58211989619831        4.52311328293831
H          137.81695431897413        0.15782787098766        2.67379772815838
C          149.90275087105974       -0.13321597034930        0.05878420285842
C          150.54252631769117       -0.25841184301483       -1.19186202039497
C          149.92309103844136       -0.36178616647411       -2.46194564458362
C          150.90837385779130       -0.50795055801785       -3.40180513826814
C          152.15590057106661       -0.49141675309159       -2.72842063574551
N          151.88997180589573       -0.32991045080278       -1.39895909959814
C          153.42487943039592       -0.64151772530191       -3.31844609582791
C          153.43873359496777       -0.85809754907841       -4.71482550032456
C          153.44742747888864       -1.05009300648774       -5.91311953870274
C          153.46464138764870       -1.27016730382744       -7.30928679211501
C          154.66497498565067       -1.49451231670081       -7.99378560751042
C          154.62736074325241       -1.70647595584516       -9.36039625570136
N          153.49897485284549       -1.70743948943298      -10.06559707869506
C          152.35378341156922       -1.49502103291148       -9.42233366785239
C          152.28217480586019       -1.27391708685586       -8.05849185329701
C          154.66058558941970       -0.59603518175770       -2.65490014578110
C          155.92876110586886       -0.78549234500222       -3.33109871301576
C          156.88555568558380       -0.64000390688872       -2.39035317146149
N          154.85853324174107       -0.35093405159531       -1.33678588281065
C          156.19776043306103       -0.35846391338558       -1.14663498147761
C          156.86366006860493       -0.11649339691363        0.06957932331290
C          156.22679486160740        0.12378862586813        1.30367372942438
C          156.84902497017330        0.40202029748256        2.54617569369546
C          155.86418437487112        0.54394298539651        3.48750462795187
C          154.61576991230785        0.35984374937076        2.84085260403959
N          154.87985781242824        0.11667686531362        1.52396856175456
C          153.34580457044009        0.39309944099641        3.44666528181305
C          153.32898484898914        0.61658328136925        4.84197170904759
C          153.31920827235854        0.81403338966855        6.03931525492057
C          153.30153989094111        1.04426568650502        7.43383811528094
C          152.09710009024579        1.10263548284932        8.14485483542807
C          152.13470819131453        1.33168952986797        9.50873024622376
N          153.26685011205649        1.50115408934760       10.18697718595089
C          154.41601552116967        1.44721857109844        9.51836817041639
C          154.48789249373326        1.22371930164547        8.15497689238540
C          152.11169663363029        0.22747865803098        2.79955888747824
C          150.84533552413842        0.23472190329903        3.50441766660689
C          149.88840216154335        0.08244988377116        2.56518095610405
C          150.57260144859720       -0.00952252908037        1.29187921950785
N          151.91163322289313        0.06638905635087        1.46822181301094
H          148.86044124810738       -0.32413898323147       -2.63226049610680
H          150.78714199163448       -0.61647165175988       -4.46746515847204
H          152.59000836923468       -0.27368798515860       -0.66665299116079
H          155.60651851516306       -1.50208924046650       -7.45806723572234
H          155.54330461671827       -1.88337680520138       -9.91683347460879
H          151.45228059576081       -1.50261401067713      -10.02819190692942
H          151.32774247861667       -1.10536395077422       -7.57447317226123
H          156.04292258525331       -1.00195158344002       -4.38121750034500
H          157.95472119754331       -0.71904249961674       -2.50126768037288
H          157.91264037197499        0.48725399581224        2.69550409022734
H          155.98614477139924        0.75820517698731        4.53696075030444
H          154.17900844646530       -0.04627008914780        0.80864141171934
H          151.15227214071385        0.97019956553407        7.63168087904232
H          151.21555256064372        1.38202164603269       10.08535244050136
H          155.32051783987882        1.58972464594369       10.10265334316045
H          155.44550565346736        1.18765878638805        7.64967828375433
H          150.73221012634863        0.33889668371081        4.57162115568758
H          148.82080864247297        0.02734791735094        2.69809808160824
C          160.89731697963180       -0.10510797023422        0.07021245398665
C          161.52908212702198        0.09756211328090       -1.17317314162655
C          160.89858562064239        0.32688092697827       -2.42186281650712
C          161.87782074082406        0.45847287769307       -3.37019892142581
C          163.13137444875710        0.31761529498660       -2.72234794874718
N          162.87521380432725        0.10664021609186       -1.39797032357220
C          164.39889371160962        0.36925128705511       -3.33131394417036
C          164.40960336965679        0.55904161504193       -4.73143258018876
C          164.41403908315593        0.71796254776170       -5.93457211336145
C          164.42494995995295        0.90080784444060       -7.33614565857098
C          165.62431769017101        0.90711332085156       -8.05794498659535
C          165.58024703830884        1.08812284759705       -9.42882458606126
N          164.44646747464287        1.25922990157555      -10.10398959876755
C          163.30215389519631        1.25495179062767       -9.42510832410108
C          163.23679465394045        1.08092279549269       -8.05417853464432
C          165.63617521415574        0.24740832470017       -2.67969130459210
C          166.90628197122780        0.29393604401054       -3.37693241146700
C          167.86211878444865        0.16055313693679       -2.43341340062657
N          165.83162690117624        0.08545887693935       -1.34877287144391
C          167.17123421376780        0.03570145701064       -1.16561975479114
C          167.83582200665836       -0.11755709804943        0.06462019835891
C          167.20570287292546       -0.27085036913903        1.31514382235092
C          167.83790320279783       -0.40370710309886        2.57702108494736
C          166.85903895034176       -0.53092512164732        3.52649349216528
C          165.60473925806721       -0.47510154266896        2.86726044264729
N          165.85945683296578       -0.31475286844971        1.53598205773680
C          164.33626124688340       -0.57703266999738        3.46850040539391
C          164.32466225358502       -0.75805588964078        4.86982885873078
C          164.32181459137078       -0.90468995486569        6.07450488865094
C          164.31396856133784       -1.07296338414225        7.47791275744796
C          163.11347650749190       -1.17380190482862        8.19082027102851
C          163.16133394607979       -1.33471943302639        9.56408802294669
N          164.29984019716812       -1.39955187870627       10.24973988197741
C          165.44533894731987       -1.30503472101351        9.57931304470086
C          165.50709739413057       -1.14258405343947        8.20683793827693
C          163.09970205961309       -0.51379570625629        2.80810962444921
C          161.82988091251795       -0.65761819458232        3.49229983032633
C          160.87399738062481       -0.53040875036241        2.54813802138030
C          161.56387832158748       -0.30326170075709        1.29416266356363
N          162.90311601292640       -0.30722626367136        1.48284409030657
H          159.83319124485104        0.38821136937714       -2.57020605088781
H          161.74925328719172        0.63961849956580       -4.42510594349962
H          163.58190537692923       -0.02477973154665       -0.68192929073156
H          166.57014124856505        0.77118295791536       -7.54758076985798
H          166.49535193348240        1.09689385890953      -10.01390013464789
H          162.39615054183278        1.39719904987626      -10.00720968000350
H          162.28285558636981        1.08384117492675       -7.54076572412899
H          167.02222047002365        0.41073583616300       -4.44257090197010
H          168.93254138781350        0.13776778512949       -2.55898722869796
H          168.90400483240884       -0.39675033731953        2.73397313998396
H          166.98844910075749       -0.65145755463566        4.58993326886582
H          165.15198628420350       -0.23590422474006        0.81303547949554
H          162.16375484178667       -1.12575136243181        7.67189674686122
H          162.24543755736335       -1.41542819666789       10.14243324531182
H          166.35525876827725       -1.36194362388630       10.16979053083748
H          166.46204965695816       -1.06959523532335        7.70046780381189
H          161.71427061913897       -0.83542820526559        4.54949602697257
H          159.80391970108815       -0.58768645448114        2.66336777444759
