185
 energy: -338.395688212441 gnorm: 0.000956840297 xtb: 6.5.1 (b24c23e)
Cu          31.18889048491009        0.03005609439923        0.01796458250210
C           27.78398523087139        0.05268761722250        0.11369619499665
C           28.42200699040606        1.26744326358268        0.31401511916581
C           27.74989621913567        2.51963244398358        0.51250073646515
C           28.71102389649189        3.46303317209357        0.66971870472970
C           29.97994533228796        2.79248994610068        0.58110738691900
N           29.77335821054636        1.46209476801341        0.35665121464083
C           31.22680458457507        3.41356191409037        0.68816049627339
C           31.24303104283815        4.86923721265278        0.97252289353181
C           30.69611192871934        5.36508938756438        2.15823832828066
C           30.70851328506993        6.72202792259227        2.42687647499019
C           31.26610666639417        7.61360756918598        1.50568192906112
C           31.27605776860995        9.01113188390164        1.77671298407943
N           31.28464960110020       10.14120781173507        1.99365224917835
C           31.81367936088746        7.12263869721841        0.31670149466129
C           31.80343454281650        5.76372708251602        0.05781379321649
C           32.45834662327804        2.77040945066905        0.54987992757878
C           33.73742609428577        3.39741070610043        0.72802752382407
C           34.68031299357015        2.44298325215706        0.52398768114481
N           32.64222022246130        1.44601920784355        0.25236790521421
C           33.98505460583223        1.22679236464208        0.22659129282171
C           34.61686134640417        0.00310328721595       -0.05719118672682
C           33.95415572224165       -1.20848702519328       -0.32128028198881
C           34.61637310370385       -2.43217293146313       -0.65973020804332
C           33.65033640955310       -3.36967446800348       -0.83203560609600
C           32.39047853181986       -2.72559351609284       -0.58942971933641
N           32.60814533590204       -1.40676561888002       -0.29003986851958
C           31.14407575564301       -3.35022102998864       -0.66871332838196
C           31.12299864159531       -4.80340702847598       -0.96445206487747
C           30.49743829469581       -5.28187289209488       -2.11807199657539
C           30.47406648015910       -6.63648339892392       -2.39750149654723
C           31.07469769177460       -7.54339903538228       -1.51940746765214
C           31.04822654813780       -8.93888455428851       -1.79915016542051
N           31.02706919221526      -10.06781512621397       -2.02177990846667
C           31.70059855267564       -7.06996388271872       -0.36227010232038
C           31.72502618570197       -5.71349474298592       -0.09240337437234
C           29.91366444567638       -2.71308580598819       -0.48850239133825
C           28.63300900229409       -3.36700074571442       -0.50540759282748
C           27.69509708068673       -2.41236238362049       -0.28768908341991
C           28.39373760072073       -1.16960413241158       -0.12478103923529
N           29.73780263729295       -1.38134718778546       -0.24686067061177
H           26.69938613551258        0.05952371525133        0.14557217920708
H           26.67898872382911        2.64778010330681        0.51773043001077
H           28.57966956867671        4.52241776569321        0.82059474761952
H           30.27296087047596        4.67557550034671        2.87999235473658
H           30.28756142901122        7.09876217636686        3.35172161167133
H           32.24415443056500        7.81118848140944       -0.40096626934996
H           32.21868919749073        5.38770395499857       -0.87042384759681
H           33.89046304150502        4.43158301195125        0.99087729431002
H           35.75270195028057        2.54281114378443        0.57444484080954
H           35.68384184102094       -2.54715269455086       -0.75908333115869
H           33.77523664522445       -4.40292638327330       -1.11265534025296
H           30.04044335907608       -4.58057533540409       -2.80714636820447
H           29.99143824487154       -6.99922336687837       -3.29751602397064
H           32.16410997035297       -7.77065466407244        0.32230553525906
H           32.20045427205523       -5.35146161458002        0.81222050165387
H           28.47912269125208       -4.42395223470732       -0.65200109782518
H           26.62417960234835       -2.52704989763302       -0.23011923487974
Cu          63.26503841996136        0.00290055143434        0.03783810618742
C           66.67067290965514       -0.02386773762347        0.10505058874799
C           66.03199157458305       -1.22437936899719        0.37634473716431
C           66.70320809506485       -2.46548610939078        0.63795974742795
C           65.74149221631266       -3.39722706289197        0.85087247168944
C           64.47311006406261       -2.72999158421216        0.73295748502853
N           64.68060888621099       -1.41373824057306        0.43748469170115
C           63.22588368716630       -3.34292654982254        0.87569484908335
C           63.20894743148487       -4.78244251236261        1.23325130204249
C           63.75574078637867       -5.21794329144721        2.44244921372622
C           63.74187468192017       -6.55945180779640        2.77978475237100
C           63.18312984703033       -7.49611276916266        1.90519590536332
C           63.17216519604391       -8.87819757845638        2.24610487131370
N           63.16496915860593       -9.99599724233338        2.51964276042369
C           62.63619989272710       -7.06559710299071        0.69269482814285
C           62.64786017143533       -5.72166124648196        0.36502179352549
C           61.99459885178408       -2.70585120671345        0.70941348434435
C           60.71547408202985       -3.32241454083019        0.92088678024402
C           59.77288501762190       -2.37741026858938        0.67599200549305
N           61.81113554659459       -1.39676973209119        0.35073443753378
C           60.46836231549907       -1.17695311011496        0.32058286875143
C           59.83683233747232        0.03509422531242       -0.00853383668042
C           60.49906232983992        1.23307447942694       -0.32827967940658
C           59.83595060050815        2.44213283604858       -0.71458465689749
C           60.80237176562630        3.36635050774566       -0.94576764848494
C           62.06363116596692        2.72953916203284       -0.69089666316997
N           61.84606781842223        1.42787010186350       -0.32431572990311
C           63.31101996038402        3.34340049986761       -0.82174189050357
C           63.33373305786616        4.77748839571190       -1.19961781991181
C           63.94311228043895        5.18461851628703       -2.38886756294772
C           63.96908445546804        6.52056409972873       -2.74668945288622
C           63.38715550509637        7.48034506695578       -1.91325070014937
C           63.41646480132053        8.85720161945800       -2.27476787357568
N           63.43800354510002        9.96927615062411       -2.56933888302630
C           62.77698082404351        7.07850886069942       -0.72134108643756
C           62.74997491435526        5.73998031021301       -0.37280497196009
C           64.54157278667725        2.71169042238201       -0.62423526418724
C           65.82375047233947        3.35926621307578       -0.69194754393438
C           66.76146939581611        2.41489394145856       -0.43262840567038
C           66.06138170774109        1.18523153701022       -0.19420124634372
N           64.71661809370994        1.39446743694090       -0.31271490259418
H           67.75548976076257       -0.03170532664376        0.12762560220498
H           67.77392791250367       -2.59528315996056        0.64414254569166
H           65.87197826473026       -4.44722022004348        1.05783488802732
H           64.17999148494917       -4.49312260086195        3.12807591711950
H           64.16267764447618       -6.88895698163890        3.72254859487515
H           62.20519012806492       -7.78941453211435        0.01095811784382
H           62.23306845672942       -5.39280485036909       -0.58115337243148
H           60.56245727783601       -4.34309205619404        1.23204106028702
H           58.70058119124178       -2.47317663532636        0.73510115579495
H           58.76754076204547        2.55649890678329       -0.80411973220706
H           60.67656171509866        4.38546450677118       -1.27366540551801
H           64.38548950146402        4.44179142814603       -3.04309514840699
H           64.43917459312401        6.82794255396627       -3.67361588462597
H           62.32766323158194        7.82030427348834       -0.07152753095600
H           62.28699758683163        5.43391074141129        0.55852860349176
H           65.97863762444517        4.40611713356536       -0.89786030296903
H           67.83327977381782        2.52884335178925       -0.39343442349635
C           39.81849113241132       -0.00880741632761       -0.08755084628353
C           38.59031536768973       -0.01130116302125       -0.08672303968558
C           37.24594064408236       -0.01076965326705       -0.08416299313548
C           36.02228915862882       -0.00798491645017       -0.07630828566326
C           41.16271410499196       -0.00296802102997       -0.08312170614527
C           42.38651612728751        0.00363586103969       -0.07638788753857
C           55.86223237218496        0.05560287038262       -0.02402981835195
C           54.63431914395814        0.05460746136023       -0.02373222783742
C           53.28958516747741        0.05011446452047       -0.02258825116335
C           52.06600310494349        0.04363365669494       -0.02079042642625
C           57.20716504108373        0.05258410580547       -0.02282845503682
C           58.43056220671136        0.04797944971891       -0.01969584753596
Cu          47.22611634038316        0.02119678742026       -0.04146467303652
C           43.79143415211788        0.00906527404497       -0.06664163616125
C           44.44673152723851       -1.16081693056739       -0.49153260268840
C           43.77598924231388       -2.36290050592813       -0.88605828994206
C           44.73735201254551       -3.25357222061110       -1.23948479489748
C           46.00202906780684       -2.59613916872620       -1.07012807905838
N           45.79216299214381       -1.32563982181436       -0.60488492789097
C           47.24656678596251       -3.17661662510627       -1.32445287722011
C           47.25466689609922       -4.55102515198218       -1.88255979947219
C           46.67622267319343       -4.81214010291227       -3.12680049975150
C           46.68499516875320       -6.09110624885584       -3.65371012162674
C           47.27023574312432       -7.13974180656287       -2.93795015046000
C           47.27792609999808       -8.45784463462621       -3.47550501246705
N           47.28574780833728       -9.52371611294060       -3.90918693182163
C           47.84739788185498       -6.88437014560282       -1.69046594211855
C           47.84075519513777       -5.60150953924152       -1.17285125699894
C           48.48364103891710       -2.56877423772801       -1.09926914307909
C           49.75639325655568       -3.14724064104840       -1.42470918699180
C           50.70619566358759       -2.24884619542795       -1.05999849999437
N           48.67723809643356       -1.32690123427448       -0.55625807416019
C           50.02033978227277       -1.11414176626801       -0.51884697496503
C           50.66039463626402        0.03584714488585       -0.02324335184504
C           50.00508427300247        1.17832966956336        0.46976039029422
C           50.67530691325528        2.31621048826991        1.02353295851835
C           49.71403427540275        3.20537534286841        1.38076473421546
C           48.44992784644442        2.61873419450826        1.03663976753753
N           48.65992940055038        1.38000367677417        0.49253352151374
C           47.20550497099575        3.21828797465169        1.24363633947921
C           47.19640736769274        4.59327166854649        1.79990849424962
C           46.58945454635849        4.85512617446253        3.03040986846644
C           46.58234632551673        6.13520515335741        3.55472050798032
C           47.18063280030037        7.18427987866251        2.85042458745131
C           47.17315176629046        8.50338234430731        3.38556889368723
N           47.16732316154375        9.56978550753371        3.81795405112238
C           47.78651593917110        6.92823870192388        1.61675670198206
C           47.79495899332685        5.64448677328815        1.10151051349910
C           45.96887607217591        2.62966357307340        0.96953240118141
C           44.69732029972905        3.27901294569445        1.11749120673360
C           43.74756288852720        2.38165730070168        0.74987837628904
C           44.43229827654436        1.18354118399115        0.36754202901182
N           45.77471895516568        1.35745095552235        0.50207955705584
H           42.70670788601046       -2.50135204746793       -0.88206193040779
H           44.60563689133021       -4.27066887344618       -1.57134454789830
H           46.23125126516852       -3.99924931841081       -3.68948513437532
H           46.23991870844573       -6.28477476584826       -4.62263810636150
H           48.29840515106358       -7.69567885499206       -1.13119441036057
H           48.27948467833749       -5.40923535256009       -0.20025659131441
H           49.90099732543012       -4.11041970605214       -1.88660544126937
H           51.77695217630182       -2.33457234801376       -1.15302812833573
H           51.74413143891239        2.40946010046275        1.13053377052424
H           49.84551347194267        4.16720935708713        1.84931988726644
H           46.13476775550334        4.04196977967866        3.58489812262990
H           46.11479540660397        6.32943457523976        4.51291071835224
H           48.24794128940022        7.73972210559961        1.06628078065943
H           48.25561998270408        5.45192496923262        0.13914863691318
H           44.55352719896342        4.29577550605252        1.44532066165087
H           42.67761189175565        2.51316893472650        0.72835153458761
