219
 energy: -385.134285428848 gnorm: 0.000502558608 xtb: 6.5.1 (b24c23e)
Co          33.92713194431658        0.70230555361990       -0.31297433988260
C           30.95519020407117        2.03914118983802       -1.07519473606984
C           31.44855759746075        2.24048931589147        0.19830105416057
C           30.72751361989819        2.91896514753366        1.23270557547409
C           31.43781918612580        2.75379929296549        2.37394643142735
C           32.62839788625342        2.03740975865067        2.02262010468902
N           32.61056119383279        1.70708479958160        0.69233589067739
C           33.69623085742229        1.81901772248107        2.88304203578113
C           34.91988254292714        1.35950478427364        2.42008465798419
C           36.13199654312019        1.42468397565127        3.17949942761508
C           37.13941776423192        1.08672991023402        2.33822276428481
N           35.18309041393119        0.93347429197005        1.14018628286994
C           36.53494546589165        0.75381752937256        1.08667214035582
C           37.23630377576807        0.19452188971075        0.01349118147833
C           36.56877519732583       -0.40498422745464       -1.06134261814028
C           37.20266922450770       -1.30451106644923       -1.97432270572896
C           36.22107771678461       -1.83533810763027       -2.74298531563862
C           34.99872816972717       -1.20307651530459       -2.34787393678955
C           33.79711344970571       -1.33031051796801       -3.02536199806563
C           33.67731827345372       -2.30438031648769       -4.14394645895882
C           34.36487232290350       -2.11156657074012       -5.34935382020461
O           35.13248866325029       -0.99224853241059       -5.42489772199106
C           35.87540959511168       -0.70947081507571       -6.59320741148620
C           34.23166098263606       -3.02938319050255       -6.39088964471916
C           33.41137934333229       -4.13482269373218       -6.22345944976319
C           32.71664321215369       -4.34336985789320       -5.04168380019574
C           32.84607059994719       -3.42355229768483       -4.00146357380976
O           32.21028042507668       -3.54059126026839       -2.80660780613499
C           31.34158035999203       -4.62777209608180       -2.56105892306520
C           32.72324374041553       -0.48726101937799       -2.76468705855176
C           31.58949037214604       -0.34862239408744       -3.63037187491362
C           30.85214610330530        0.68136121250468       -3.15001935759551
C           31.50429378209584        1.13113125221613       -1.95722009411439
N           32.65687092054403        0.41964755767387       -1.74195519396339
N           35.22561547469424       -0.35141184474209       -1.29006086037744
C           33.58092784049377        2.19808319574503        4.31732960000574
C           33.57791828864663        1.19926756216547        5.30039043890297
O           33.66145621134510       -0.07828735618044        4.84655262802703
C           33.70479796448321       -1.16004849561881        5.75475776727034
C           33.48239658448403        1.53784205837608        6.64989240645350
C           33.40062200826016        2.87407399022085        7.01111740015696
C           33.41367651334442        3.87996544504077        6.05665382655349
C           33.50526267946827        3.54168765269996        4.70688956023481
O           33.54307162101402        4.45631945454230        3.70154258359075
C           33.49340505160566        5.83909950166043        3.98788344404471
H           30.02659165241117        2.52631729362537       -1.34974148921857
H           29.78293426138356        3.42046826475431        1.09152160213212
H           31.20214335117872        3.10689998285892        3.36454338333300
H           36.19482489230958        1.72744527010918        4.21235949770438
H           38.19704211670604        1.03630193596629        2.54124107105732
H           38.25830169031789       -1.52393850122071       -1.98615173817605
H           36.31077569779850       -2.56567509602398       -3.53029304285032
H           35.22095803594692       -0.57435596080680       -7.46285294022293
H           36.40718434621930        0.22324018625897       -6.39632416885960
H           36.60410993940064       -1.50078233907321       -6.80747949394380
H           34.75669125921463       -2.88873379161944       -7.32623372089093
H           33.30936505061572       -4.84877907463548       -7.03341090322298
H           32.08227225355246       -5.21368932615996       -4.93944381273178
H           30.95541622118341       -4.48574104502362       -1.54998445190479
H           30.50320572730597       -4.63975704547745       -3.26825717644427
H           31.87242077667468       -5.58626878844802       -2.61230575269289
H           31.41146348642982       -0.94931957735587       -4.50804501908529
H           29.93244987839429        1.09199134936688       -3.53628829541115
H           33.79777116565194       -2.06249287705997        5.14780246200686
H           32.78704545097489       -1.22099270787945        6.35228328759763
H           34.56951838960295       -1.08641100571551        6.42545916500845
H           33.47266313544235        0.77399399561399        7.41586829639255
H           33.32790655880160        3.13792896388478        8.06052801213616
H           33.35532259942892        4.91442418215801        6.36775866646703
H           34.34373284990068        6.15207496253765        4.60592719941971
H           33.54298974522396        6.35047748635351        3.02472197042222
H           32.55864374067227        6.11237138230339        4.49247959264733
Co          55.33308542011439       -0.21659131125561        0.09081487673794
C           58.32617917740247       -1.44573178371056        0.87623488174709
C           57.77461149727813       -1.81165137113918       -0.33592995316042
C           58.44412000858787       -2.62307165106381       -1.30778977829756
C           57.70481299196747       -2.56164629215377       -2.44168930919941
C           56.54553577013358       -1.77504316736928       -2.14049649113993
N           56.60958319521103       -1.30890901237392       -0.85432987907954
C           55.46256264538116       -1.60083597732483       -2.99397092351640
C           54.25503102786178       -1.09764357265116       -2.53432129557917
C           53.01482516808645       -1.22685411790666       -3.23757246733100
C           52.03389810010787       -0.87777120862093       -2.36813121884550
N           54.03199460552223       -0.60012057694399       -1.27255885933671
C           52.68027437544788       -0.46681959447769       -1.16187444569273
C           52.01324695977153        0.13424713684683       -0.08437134931045
C           52.71807024493470        0.89099516029922        0.86228234222228
C           52.10806381006338        1.85599567021175        1.72133955985429
C           53.11552406774884        2.52769174588874        2.33239966164011
C           54.33795802172082        1.92120038770366        1.90009577221884
C           55.57436322601066        2.17111818175986        2.47719843938861
C           55.69585530155349        3.31087295128867        3.42552047050228
C           55.68087292889055        4.62269692326060        2.93261983923711
O           55.57151425226688        4.74687805135402        1.58447722046277
C           55.52071475290897        6.02536072495909        0.98448633340659
C           55.78597475516082        5.70531364370167        3.80532864856679
C           55.89442524897670        5.47155689575510        5.16776840789793
C           55.89834635947008        4.18259996685960        5.67913698033098
C           55.79780291647717        3.09950635526141        4.80649175612418
O           55.77629341497904        1.80244569438889        5.21392742535508
C           55.84377250597174        1.48272584830527        6.58873054316954
C           56.64996364006809        1.31290885510722        2.28220823838346
C           57.85084532887051        1.31773741379281        3.06434341898051
C           58.56100690094701        0.22224130742672        2.70191932373884
C           57.83128352713451       -0.40958461011381        1.64402907884313
N           56.66333574141346        0.26460790803895        1.40015178944240
N           54.07565448077290        0.93522092742723        0.97976534183926
C           55.54139172945498       -2.08461502535837       -4.39892947434231
C           55.54154588918798       -3.45370393271663       -4.69430106614951
O           55.46917350098867       -4.29223338460189       -3.62684128646701
C           55.43566487941015       -5.69223764555860       -3.81673927566787
C           55.60083735848687       -3.88795652023141       -6.01821844929714
C           55.65972607904595       -2.95163178492796       -7.03944038151850
C           55.65633322144844       -1.59121892733384       -6.77080009715336
C           55.59211258018323       -1.15658001628205       -5.44721440865498
O           55.58383479585518        0.15127645567561       -5.07998752302676
C           55.64355602629048        1.17035781866010       -6.05702717648986
H           59.26432289836616       -1.90132998923190        1.17208153459161
H           59.37903395950224       -3.13402194533074       -1.13887058420341
H           57.90041132379054       -3.02872898451597       -3.39315624091771
H           52.91695802665974       -1.58060404287997       -4.25140032681787
H           50.96850507365448       -0.85616150628664       -2.53167215361587
H           51.04561540432370        2.01843534546315        1.80449912058880
H           53.04751077565965        3.33550345677918        3.04320686445873
H           56.44160884152929        6.59240669842390        1.16732009564257
H           55.41282032765645        5.85329800754995       -0.08800553345369
H           54.66138117637374        6.60390899318656        1.34471369273664
H           55.78272865364092        6.72147713155163        3.43434681325170
H           55.97496170275527        6.31310609009776        5.84705765650898
H           55.97731536026058        4.03049416057044        6.74725146419827
H           55.79882085038957        0.39376850140352        6.64984936016428
H           56.78272322182601        1.82973974606265        7.03702446169322
H           54.99850140503362        1.90967952180144        7.14205105427938
H           58.09284765850234        2.05208392978597        3.81514467076962
H           59.51175010830363       -0.12050751497078        3.07911556626425
H           55.36932717144962       -6.13232321227607       -2.82001232980533
H           56.34655221562840       -6.05329365640641       -4.30964286757583
H           54.56078628144472       -5.99671695778093       -4.40389629990061
H           55.59978828496119       -4.94282331796396       -6.25802332665442
H           55.70731845064078       -3.29018207114978       -8.06865949200417
H           55.70119485602356       -0.88328401572309       -7.58757813515743
H           54.78220540312121        1.12849019538949       -6.73486016407935
H           55.62443467254623        2.11558832273233       -5.51141737650966
H           56.56881875015999        1.11149392759448       -6.64311387847980
C           38.63570656792189        0.10201415222617        0.07779062420397
C           39.85040468836210        0.01999982073463        0.11227612478142
C           49.40255427910495       -0.02596050859566        0.04853721013317
C           50.61456997425510        0.08230929874543       -0.02816031786609
Co          44.62719939662946       -0.28797114899465        0.19956314913270
C           41.24876038610930       -0.09637012005373        0.14690180939134
C           41.90896819867928       -0.04881153194658        1.37997995919763
C           41.24138282562644        0.00125739727876        2.64192122026363
C           42.20311294189073        0.15051325195888        3.58548479861449
C           43.45234934850872        0.22439059905335        2.89126292092300
N           43.26141086862575        0.02422654947158        1.54251133395593
C           44.64476782750950        0.63566158172020        3.46615487350904
C           45.81243358582157        0.75865462649154        2.72525718118464
C           47.02596538698787        1.33369317674429        3.21689456552921
C           47.96070839610830        1.15833891596075        2.25040584393728
N           45.99401613652822        0.27133587736932        1.45419909397852
C           47.31980454444638        0.45905026811947        1.18220675905987
C           48.00829028593931       -0.14511570067858        0.12425037050009
C           47.34028768659435       -0.92191123480065       -0.83232382580880
C           48.00019316136626       -1.72208323313130       -1.81461097267295
C           47.03599560550919       -2.20213119599228       -2.63779096427045
C           45.79371617921936       -1.66409574113059       -2.17372947108882
C           44.61095600631280       -1.68480906195252       -2.89549034504983
C           44.58610221092560       -2.31046755974847       -4.24341260979259
C           43.78267370821724       -3.43447422559477       -4.48360798751171
O           43.08125128254295       -3.90149372182418       -3.41860901694035
C           42.20480616673468       -5.00090486186920       -3.56110239043894
C           43.74646408681675       -4.01858042328293       -5.74933999222230
C           44.50684423911520       -3.47298409709395       -6.77247964457130
C           45.30400620101823       -2.35838397882422       -6.56074269895632
C           45.34511361764367       -1.77599612201591       -5.29434575177116
O           46.08050626702232       -0.67286984971540       -4.99785435641767
C           46.90346944976611       -0.07206460641257       -5.97701173094716
C           43.44951015329989       -1.09139426745044       -2.41644737295510
C           42.24399885523866       -0.94289357461192       -3.17152331094878
C           41.30675627114552       -0.45663308535485       -2.32037934244773
C           41.94037033863050       -0.32593216465623       -1.04651025697747
N           43.26434938408148       -0.65528344035094       -1.12799511807878
N           45.98952147240570       -0.94650068689696       -1.01390294197515
C           44.67322001373076        1.00514263220138        4.90575631378847
C           45.42981890672382        0.24577877339415        5.80953318984039
O           46.08656777232535       -0.82026585161693        5.28398671214275
C           46.89946473000552       -1.63813622116968        6.10098250670812
C           45.46550012577997        0.58782489410832        7.16092264332359
C           44.75190670835312        1.69186630282078        7.60208376186617
C           44.00249602708215        2.46199338441537        6.72569169297735
C           43.96151580180123        2.11799560912397        5.37488004107071
O           43.27003670747466        2.81998647262069        4.43970983568257
C           42.49983152285640        3.94562951169972        4.80964124016313
H           40.17424256506477       -0.07595007636497        2.77443682851648
H           42.08713118532690        0.23161894502381        4.65396538271484
H           47.13692309114752        1.80661530337149        4.17928682861134
H           48.99932905622858        1.44634546237485        2.25943443198523
H           49.06385458814900       -1.89302017018359       -1.85256416903729
H           47.14690139272689       -2.83966359776699       -3.49972798432073
H           41.41973795389752       -4.79502988254961       -4.29883218513973
H           41.74609714777816       -5.15166951478961       -2.58214456774711
H           42.74434499075716       -5.91101775552344       -3.85013483653886
H           43.13387281627864       -4.88906169962616       -5.94236702249133
H           44.47627412601557       -3.92552555019728       -7.75758919311544
H           45.88247375913730       -1.95018305435150       -7.37868510884027
H           47.39914891382422        0.76596488403755       -5.48343829248627
H           46.31409763492442        0.30484370128945       -6.82170809752892
H           47.66256838689895       -0.77147149079566       -6.34779409083060
H           42.13876446654903       -1.18531503955981       -4.21666722142692
H           40.27365876665767       -0.22071274804899       -2.51915585431836
H           46.31420251292843       -2.12836197406860        6.88844559044869
H           47.32259113574941       -2.39893475939654        5.44248584824339
H           47.71431567146290       -1.06428904763689        6.55878939827325
H           46.04150436044511        0.00465970613470        7.86687588661401
H           44.78164022350225        1.95916824692250        8.65270773818408
H           43.46008115326669        3.32124620804748        7.09679231484105
H           43.12618785233735        4.73948288402352        5.23438344643278
H           41.71672643559175        3.67751481436228        5.52915927303263
H           42.03395828216788        4.30896298406582        3.89178272370828
