262
 energy: -503.713066097339 gnorm: 0.000573403964 xtb: 6.5.1 (b24c23e)
C           43.84782825441685       -0.28879544764434        0.11244023417126
C           44.45506135019910       -1.06262047499971       -0.86798216775384
C           43.80150315160695       -1.85419450533769       -1.85385748564268
C           44.76257050569219       -2.45731927819396       -2.61500261601809
C           46.03528262847108       -2.06572717223862       -2.10924540814601
N           45.79825817832700       -1.21538579846899       -1.06640471849934
C           47.29887617558322       -2.45231866099949       -2.56971482795662
C           47.33492164582606       -3.40311880733773       -3.70851995622937
C           47.95687442164198       -3.02658054125524       -4.90236106633710
C           47.98304925830157       -3.90819313480008       -5.97544743110491
O           48.56559866958927       -3.60538348013290       -7.17819140319196
C           47.39864474924451       -5.16723822018946       -5.86355648433820
O           47.41210097027358       -6.05615574963253       -6.90609341489766
C           46.78178297195094       -5.54639651990641       -4.67019230403160
O           46.21963283941104       -6.77556281412006       -4.56984094507964
C           46.74712599684631       -4.66342781203754       -3.59709234418791
C           48.51339808869501       -2.00796577666771       -2.03972560520321
C           49.81147969343444       -2.49748572365657       -2.46816570034627
C           50.73115645460449       -1.83477024128871       -1.73625043348001
N           48.66629220194746       -1.08195657509132       -1.05410492341935
C           49.99409205005240       -0.94518964999859       -0.86010274142244
C           50.62852879972841       -0.05310943109759        0.02706587667873
C           49.99081132732347        0.82156337828107        0.92614292674702
C           50.63029804057241        1.75362024237088        1.78598600150973
C           49.66330201057994        2.38428045056198        2.51851354119038
C           48.40250138802264        1.84738470001244        2.13621591431126
N           48.65160702293873        0.91822716683853        1.16068077182377
C           47.14281812395851        2.19159246908425        2.63810706671083
C           47.10771347558780        3.19371931546104        3.73131342753915
C           47.77050766208679        2.94520798121855        4.93382428652108
C           47.73207469797871        3.88331184385947        5.95866789818146
O           48.36598915548014        3.64765048578135        7.13328355657996
C           47.03570544322029        5.07981037427751        5.78045423856511
O           47.01817255673339        5.98753583258036        6.80666009223260
C           46.37755089696922        5.32965126565241        4.57889897333209
O           45.72006471690224        6.52748371222334        4.47589964765166
C           46.40779124142770        4.39079661120858        3.55548511275906
C           45.93059864624438        1.65766959388898        2.18681213382955
C           44.63274935988359        1.96633067398685        2.76694961906857
C           43.72122893824004        1.27074397722496        2.05735043536339
C           44.46151999831273        0.53007965662082        1.05141897581666
N           45.78929378202318        0.77798965932812        1.16717872661355
H           42.76354476655389       -0.33144670350691        0.13754079410302
H           42.73165577715221       -1.93642535310033       -1.96114493877460
H           44.60897769179540       -3.11239394708086       -3.45706119872619
H           46.52431065486160       -0.76419174336111       -0.52010502071183
H           48.40124513465486       -2.04314486898026       -5.00099123326779
H           48.94339046774313       -2.71624944105595       -7.16257574056849
H           47.87677072022224       -5.63869540946066       -7.64882059238642
H           46.34678841546943       -7.23924329853232       -5.41402588742524
H           46.28103582263688       -4.97548794265433       -2.67140221333200
H           49.97489851850008       -3.25874505348158       -3.21382033295633
H           51.80533401491976       -1.92545102159993       -1.76346023585561
H           51.69509012396877        1.91725131543050        1.82744159994376
H           49.80700467919765        3.15846206325739        3.25436458883615
H           47.93276425902050        0.38043722321331        0.68776123719338
H           48.29872628006455        2.01352803522914        5.09030370292865
H           48.21825773645728        4.40937399883446        7.71781346421018
H           46.49224733452638        6.75137427624539        6.52071449186091
H           45.28654339789501        6.60842373148218        3.61624725440271
H           45.90572813135328        4.59861696863408        2.61789833449391
H           44.46729232068072        2.61555755272961        3.61175924620149
H           42.65049980268412        1.23487571924949        2.18444635612272
C           90.93027787412214       -0.12231865949531        0.26280682337763
C           90.32389457953947        0.66550030374796        1.23251708042437
C           90.97902192038340        1.44556016502577        2.22649398516704
C           90.01944915871459        2.06842666897830        2.97344040359280
C           88.74584851391423        1.67854175789347        2.46849780193295
N           88.98115976358811        0.84168518368190        1.41445632180831
C           87.48378160997071        2.07173748845782        2.92765700240515
C           87.45396532795756        2.98015498180183        4.10120091753523
C           86.87170436110169        4.24528087953629        3.98426032696471
C           86.85276216966200        5.10041317019783        5.07888129394425
O           86.30824453485042        6.35718410529096        5.03686026408895
C           87.40536949450515        4.69934823883181        6.29250224681046
O           87.39832922660810        5.52300148051776        7.38757526948484
C           87.98315110932366        3.43439009180785        6.41173067924192
O           88.51510009659098        3.05191995665916        7.59826543611105
C           88.01021937225202        2.57924695185924        5.31618647652440
C           86.26781292435091        1.67241835799416        2.36643900696459
C           84.96902325515566        2.02879598808253        2.90916062486705
C           84.04834219040605        1.45393429613507        2.10768288019702
N           86.11363624573038        0.88473808445388        1.26716833269117
C           84.78521954863000        0.74248059432368        1.08133444746990
C           84.14949081247418        0.01695947037767        0.05453795559162
C           84.78382487289736       -0.72437309250221       -0.95920213045057
C           84.13974093892989       -1.40505289759871       -2.02667200050541
C           85.10536408029654       -1.98595761728471       -2.80051967419957
C           86.37032013324021       -1.68921027976062       -2.22079771291625
N           86.12397138469601       -0.91735580560281       -1.11581132876704
C           87.63129588806650       -2.08076824693497       -2.68234385501271
C           87.66622623312954       -2.92945275254876       -3.89892890128531
C           87.03882298348194       -4.17554224903292       -3.90776972772786
C           87.07320756262627       -4.96581871343138       -5.05076068229678
O           86.47306795758529       -6.18076969210001       -5.06698943130930
C           87.72972039239791       -4.50709089999472       -6.19396045551765
O           87.74268047357853       -5.30532415640764       -7.30751504908793
C           88.35367112856521       -3.26218211751199       -6.18586094226440
O           88.97339799786531       -2.87767336785461       -7.34596083290016
C           88.32798038140473       -2.47352090464928       -5.04255215724882
C           88.84572626733411       -1.73075997817154       -2.08177871712535
C           90.14543877963646       -2.21199995151902       -2.52370826573374
C           91.05780815287490       -1.66575153667574       -1.69460052272871
C           90.31656161737106       -0.85657751595510       -0.74361967996319
N           88.98745624049856       -0.92685583426154       -1.00157242604087
H           92.01446925982290       -0.15843537470207        0.30024563564204
H           92.04897687701467        1.51828453511453        2.33958456936810
H           90.17467270430701        2.74431933113718        3.79859843083495
H           88.25430145925975        0.41591046421441        0.84911129236895
H           86.45271533679842        4.56949045585700        3.03895019229414
H           85.94832909802302        6.54633349593745        4.16033876359622
H           86.96119423510316        6.35179304601804        7.13513643218678
H           88.39838863116623        3.77802365480477        8.23300663839202
H           88.44602422578133        1.59455635252195        5.42555398326227
H           84.80512143416220        2.62221333376078        3.79413595899780
H           82.97339600928541        1.48557800826850        2.18701957008311
H           83.07296449339111       -1.43285966419423       -2.17961717960368
H           84.95797683027661       -2.56297417092567       -3.69870861906323
H           86.84585438995288       -0.54111372686342       -0.51005648214014
H           86.54107893422892       -4.54903446958503       -3.02222181410326
H           86.60839921776602       -6.57658936084659       -5.94376584919519
H           88.23687555879869       -4.84132942455739       -8.00193743366692
H           89.38214669786139       -2.00802297347844       -7.24506168383877
H           88.80308937194299       -1.49956291732856       -5.04825007071910
H           90.31107063962354       -2.88880828778438       -3.34655949647425
H           92.12993525254790       -1.78612638401030       -1.69641724110550
C           53.25763671969351        0.00214369733344        0.01905266561790
C           52.03601970916542       -0.02113109931459        0.02096011005572
C           54.60827484198470        0.01832945131837        0.01525517703437
C           55.83017546199119        0.03022307407085        0.01182925715393
C           66.71607021304031        0.03123623698002       -0.03324026337937
C           65.49323762084040        0.03475441887796       -0.02739832903035
C           68.06450075348563        0.02453752829960       -0.04029667456235
C           69.28737692595773        0.02131072409716       -0.04654754114903
C           80.16935632120381        0.02854040509695       -0.02866121065353
C           78.94772623476892        0.02517830478502       -0.05187584195292
C           81.52012939424952        0.02677942831047       -0.00194498310997
C           82.74148563891156        0.02891317446910        0.02362243098704
C           57.23729264020583        0.03215677337204        0.00719956390725
C           57.86117041582911       -1.22895547953594       -0.04196614885516
C           57.20866079073624       -2.48880114363960       -0.04412377637316
C           58.17040382962072       -3.46083350137511       -0.09377163897737
C           59.43906418894080       -2.82132977509567       -0.13462912985608
N           59.20133688531459       -1.47324669673059       -0.09293045372312
C           60.69749709347583       -3.43400607136296       -0.18819967578958
C           60.71046576169779       -4.91659418122027       -0.25338832792256
C           61.32545510985354       -5.65762152180593        0.75642642932857
C           61.34329882218196       -7.04903395215820        0.71505954063566
O           61.93023147100879       -7.78098211826128        1.69731433915535
C           60.74555642108026       -7.71873985890649       -0.35764190816010
O           60.75109374216994       -9.07489970321955       -0.42977825592659
C           60.13563880395478       -6.96950834441760       -1.36729173036614
O           59.57372631068297       -7.68652219314270       -2.39213846204823
C           60.10744726164818       -5.58256467086083       -1.32212010280609
C           61.92275311698511       -2.76513808006372       -0.18441152129772
C           63.20759578134500       -3.42846634824386       -0.31424213704088
C           64.14519662668623       -2.45924515114218       -0.26782324612298
N           62.10085035585277       -1.41863920280383       -0.08156400829016
C           63.43155056390738       -1.20669437136867       -0.11846245099218
C           64.08878647430353        0.03687719686386       -0.02087363105823
C           63.46463794278986        1.29491278913365        0.08534687253867
C           64.11749508682328        2.54739902628399        0.21947392686024
C           63.15591965082741        3.51862282581991        0.28159669632466
C           61.88673920979821        2.88687490321812        0.17695418043361
N           62.12457073285982        1.54218488405158        0.07055692803675
C           60.62857225589592        3.50106350617605        0.19628882623139
C           60.61743065125525        4.98319372327394        0.28390010705753
C           61.21602222582892        5.74951590794848       -0.71661880522930
C           61.20189808543025        7.13705537855758       -0.63508562849964
O           61.77378225769488        7.89040259843539       -1.60578094509445
C           60.59484312814328        7.76341445533662        0.45460893213328
O           60.59966778769749        9.13237562760288        0.51025509451908
C           60.00119303175337        6.99822882084065        1.45534406593828
O           59.43001737780981        7.68332733592066        2.49533541400248
C           60.00719697331763        5.61142801988231        1.37298553774760
C           59.40237347469673        2.83512545935464        0.13877750143845
C           58.11642738473079        3.50808781220010        0.09484260121608
C           57.17852292087291        2.53922842792611        0.04802770281536
C           57.89263350073635        1.27807240297317        0.05153862442024
N           59.22474485494450        1.48615217638246        0.09775309081651
H           56.14009170573611       -2.62559412568179       -0.00397047939967
H           58.01578312892806       -4.52744203131658       -0.09150437235883
H           59.92543648851782       -0.76264233853481       -0.08742918781654
H           61.78081576085209       -5.14882198814783        1.59855689981666
H           62.30866398213588       -7.21043077295814        2.37907867240321
H           60.29089340912250       -9.33756283703926       -1.24321383890563
H           59.18078213987883       -7.09794232162702       -3.04955080169731
H           59.64139320305591       -5.02465656450035       -2.12584013179916
H           63.35130397814833       -4.48935706274966       -0.44006858202203
H           65.21707193924543       -2.55582266506337       -0.33492291797237
H           65.18640254386156        2.67908874393046        0.26739211465117
H           63.31055639124136        4.57877429188644        0.39797688654590
H           61.40074194170548        0.83511496345296       -0.00248380054068
H           61.67533238263252        5.27545085969833       -1.57442385650105
H           61.65844063123484        8.82660154037540       -1.37348663618306
H           60.13873470431044        9.40008833108578        1.32124828540633
H           59.03636244805714        7.07394854107391        3.13349471030060
H           59.55558541504696        5.02207853009134        2.16227510409040
H           57.97192735091816        4.57631255794717        0.08456051943367
H           56.10599735069223        2.64172207753813        0.00346768527292
C           70.69173509948654        0.01970159387841       -0.05492216123604
C           71.31709774647648       -1.24238026723105       -0.07460740795545
C           70.66691567140245       -2.50260032947723       -0.04071913505317
C           71.62912650761577       -3.47412953871302       -0.09685090154525
C           72.89538700875477       -2.83371308385897       -0.17867823716814
N           72.65598392550832       -1.48534156565128       -0.14837224397912
C           74.15303045006658       -3.44388342446878       -0.26822013098859
C           74.16767117294512       -4.92564333150766       -0.33683243157264
C           74.83258725023032       -5.66666973009620        0.64115932643492
C           74.85051031284324       -7.05796649766433        0.59841943243994
O           75.48593705074147       -7.78940101167937        1.55024028461733
C           74.20082073158740       -7.72840061815576       -0.44318318395733
O           74.20316714182709       -9.08434400867485       -0.51478848794104
C           73.54165862889212       -6.97953833496419       -1.42180684825465
O           72.93079680030962       -7.69725241536002       -2.41754013033347
C           73.51444473422238       -5.59271031966530       -1.37530138513222
C           75.37657071530512       -2.77044721492341       -0.29338076354141
C           76.65977181648499       -3.42738037046474       -0.46711057452042
C           77.59685880563232       -2.45822460975647       -0.41112477831030
N           75.55369601260406       -1.42701957201192       -0.16431346382843
C           76.88468931922408       -1.21145590730359       -0.21434439731528
C           77.54031163708859        0.02647877803821       -0.06742324528540
C           76.91604438250488        1.28031674928626        0.07046771889712
C           77.56698147899483        2.53005929293059        0.23849959411129
C           76.60550217165081        3.50187121654636        0.29021059430825
C           75.33844620704954        2.87348613765983        0.14686797813258
N           75.57644105645754        1.53009650130540        0.03089715820458
C           74.08097387069840        3.48993210298948        0.13463175167991
C           74.06859862415199        4.97179713688950        0.22311127787421
C           74.69641066898430        5.73905817442595       -0.75856347779660
C           74.67855912028337        7.12654642426979       -0.67690300366193
O           75.27765694634100        7.88095481999051       -1.63025425432504
C           74.03966285803220        7.75194089337594        0.39498131146731
O           74.04197509976352        9.12083774044511        0.45151215166946
C           73.41751757322683        6.98578070946946        1.37745713259054
O           72.81576248642381        7.66972059767774        2.40084951890736
C           73.42606425580423        5.59913006671861        1.29402662852132
C           72.85659004421626        2.82495805686736        0.04818881321787
C           71.57227101401578        3.49756855225455       -0.03020323884827
C           70.63484783947068        2.52825417561448       -0.07936179550858
C           71.34832363580638        1.26721945389696       -0.04249021979670
N           72.67869651870869        1.47495645814985        0.02042884343213
H           69.59967577510376       -2.64004414543582        0.02541617605614
H           71.47601846217709       -4.54067636640858       -0.07288997098841
H           73.37861385623987       -0.77357453177866       -0.16978849470878
H           75.32699254053972       -5.15784425782368        1.46091460655128
H           75.90414889956418       -7.21849334716627        2.20795492626638
H           73.70406062186524       -9.34791783919715       -1.30455961377399
H           72.50829117072323       -7.10948386659621       -3.05712902504860
H           73.00991055321828       -5.03558968408655       -2.15597839436988
H           76.80241217854014       -4.48394265870723       -0.62607631585227
H           78.66738733007362       -2.55065862003362       -0.50094294024475
H           78.63468603514787        2.65967267275670        0.31180049938919
H           76.75842461205320        4.56037564360163        0.42292208410565
H           74.85355210761155        0.82532669598847       -0.06883416291759
H           75.18116571396254        5.26585885784802       -1.60273324706246
H           75.15104532708872        8.81691914882467       -1.40291509244928
H           73.55428310012375        9.38793419651711        1.24691735497218
H           72.40891789590820        7.05917148255380        3.02947148883506
H           72.95102092679036        5.00909440726783        2.06891747704496
H           71.42860255617082        4.56554365978332       -0.05931787196036
H           69.56336940475332        2.63061976477351       -0.14450400033141
