496
 energy: -819.736295996524 gnorm: 0.000628590322 xtb: 6.5.1 (b24c23e)
C          116.09760513761793       -0.00129834951943        0.17968757103428
C          116.71529014268152       -0.89872140779167        1.04143727309402
C          116.07230022039177       -1.82663297394635        1.90738113014325
C          117.04179585012778       -2.51731143383984        2.57918581949128
C          118.30843638368567       -2.02349834934778        2.15593143482683
N          118.06034098901962       -1.05731467227548        1.22185086398629
C          119.57578513857912       -2.43832982132128        2.58165383021276
C          119.61904216723312       -3.49101919407408        3.62403002093494
C          120.25841645759832       -4.70870026111148        3.37726966201464
C          120.29791591604383       -5.69837287163417        4.34300985784756
C          119.70692184683908       -5.48444124211249        5.59091514634972
N          119.71040739557878       -6.48686866951320        6.54577781168055
C          119.06113408065296       -4.27172377106259        5.84429702758956
C          119.01875887265408       -3.29051505275755        4.86941137040581
C          120.78612695901279       -1.93453592364352        2.09602215071204
C          122.08642707997505       -2.33071798039580        2.60430918351243
C          123.00159823634263       -1.63967142028706        1.89323777197438
N          120.93381120903719       -1.00575719118957        1.11147526756177
C          122.26108886333985       -0.81404993972582        0.96034498729137
C          122.89111492810547        0.03241619730309        0.02617478295315
C          122.24586870763528        0.86733742225705       -0.90536177813339
C          122.87728335022895        1.69678243724246       -1.86886694263636
C          121.90223864748955        2.35957275412283       -2.56176523083659
C          120.64291219171211        1.96741740390497       -2.03048400279388
N          120.90201351676055        1.05622454708799       -1.04040732225556
C          119.37727524265290        2.40734379524104       -2.43562867215505
C          119.33364569608025        3.42518933792747       -3.51140694112968
C          118.66586223617242        3.16323280487278       -4.71053591347844
C          118.62414161804502        4.10729511889677       -5.72096317259930
C          119.24056601966083        5.34898057169865       -5.54631253658424
N          119.23439413350292        6.28180490007352       -6.56939458566356
C          119.91373075574170        5.61782573981881       -4.35193085952147
C          119.95874119623909        4.66424816291061       -3.35031036302339
C          118.16670990591980        1.95863476843591       -1.89584934985806
C          116.86148582202287        2.47693590664624       -2.27441659713192
C          115.95368050466959        1.80115733643379       -1.54095236556849
C          116.70359140584988        0.87869932721182       -0.70755598395869
N          118.03283567198757        1.00860070509156       -0.94017811854499
H          115.01249656765859        0.00244148470875        0.20624151613456
H          115.00377172207298       -1.94733597814428        1.98938677750977
H          116.89701509907853       -3.30730755422161        3.29815626127736
H          118.78038367303060       -0.54073350874561        0.72799239626186
H          120.71126318697128       -4.88600294481844        2.40794974221371
H          120.78842409278586       -6.64313239020461        4.13547560765512
H          119.57593977068419       -6.17197000927807        7.49333479886718
H          120.44637384697553       -7.16751613083064        6.44451692973732
H          118.59763960205542       -4.10079026349618        6.80986572798566
H          118.53361641813773       -2.34408020866930        5.08247043601830
H          122.25626033422319       -3.03061731824523        3.40641587582887
H          124.07598256980019       -1.67115170230102        1.97521530215846
H          123.94296749948852        1.77049517793159       -2.01099667577249
H          122.04127276848945        3.05288280340769       -3.37510094804151
H          120.18681179105451        0.58937779150064       -0.49253466121019
H          118.19307459876023        2.19831840572304       -4.85746981856069
H          118.11230295431247        3.88742238134798       -6.65155391914676
H          118.48229557675197        6.18133860377081       -7.23227643323970
H          119.39375872286904        7.23296367895917       -6.27765248390802
H          120.39642539392180        6.57886748880366       -4.21138344935795
H          120.46563609430528        4.88955366609378       -2.41826799514104
H          116.68835930775235        3.26225188808467       -2.99271204693486
H          114.87942989249122        1.90170598291101       -1.53549999310464
C          199.17436963361538        0.05845733703264       -0.12166573373521
C          198.56598498076252        0.69257646208797       -1.19761703387808
C          199.21761392216419        1.28548407283104       -2.31471751151757
C          198.25712511321930        1.81606446155731       -3.12998485537032
C          196.98825567421608        1.57569388833696       -2.53063211450160
N          197.22481788307135        0.88263021202054       -1.37684186608969
C          195.72797252578869        1.95953836026084       -3.00542064878431
C          195.69632085656022        2.75932574721372       -4.25166363034783
C          194.98496437362436        2.31061359731361       -5.36775475398822
C          194.95252498329879        3.05259283506634       -6.53481908029229
C          195.62428060916261        4.27564366078490       -6.60731389228800
N          195.62602982745099        5.00256010456771       -7.78548930493248
C          196.34279730699203        4.72928924166345       -5.49828203283330
C          196.37653615459772        3.97688279470545       -4.33761571830629
C          194.51434607624284        1.64633973250007       -2.38576655644917
C          193.22480058675100        2.13280332500385       -2.83995667025720
C          192.30269708366689        1.60941909292792       -2.00483276777430
N          194.35520734500929        0.86740999732226       -1.28011533791811
C          193.02956092516231        0.81200337932230       -1.03732292098884
C          192.38801463951236        0.09397360974432       -0.00752722678608
C          193.02088938287224       -0.62939268748627        1.02107755242908
C          192.37765221434216       -1.39774954387098        2.02636680897196
C          193.34347447553733       -1.92570690520278        2.83834204614746
C          194.60824609939490       -1.49015100624294        2.35628114044387
N          194.36196771469935       -0.72024543192322        1.25001050273728
C          195.86887463196106       -1.79455801067339        2.88399795331373
C          195.89724101710024       -2.59702730872811        4.12813343769208
C          196.56541505570857       -3.82359507186760        4.17098188946846
C          196.58980402636266       -4.57881515533363        5.32972716561092
C          195.95469619726347       -4.11332046393039        6.48387346169192
N          195.94308112704647       -4.88469330341190        7.63357338291849
C          195.28090849530679       -2.88992608134245        6.44905483817213
C          195.25332074327230       -2.14555598214499        5.28317005368625
C          197.08539588158951       -1.39821252987201        2.31674110317370
C          198.38843004216162       -1.66397184004324        2.90557445416987
C          199.30342215974184       -1.14923830007522        2.05890394506295
C          198.56021454141134       -0.55738181365269        0.96114706911192
N          197.22788977593314       -0.71381206176672        1.15689712584991
H          200.25968064122782        0.04839177193655       -0.13715031331532
H          200.28521018489499        1.29223972632052       -2.46720543700903
H          198.40944718413638        2.32053538183016       -4.07034522619897
H          196.49942248805610        0.55428734476035       -0.74815563576954
H          194.46922797038553        1.35764767358773       -5.32324395580223
H          194.40469351688944        2.68846609692842       -7.39711969334003
H          195.83106265076495        5.98332800041801       -7.67969915498583
H          194.85252327152563        4.81350010163923       -8.40281662442097
H          196.86898330130185        5.67633810668443       -5.54918444992588
H          196.91771748013204        4.34849174148295       -3.47419185006105
H          193.06724520347268        2.80075537242749       -3.67133649262654
H          191.23407833071272        1.75241576308078       -2.01209388527174
H          191.31164634972518       -1.53581047286453        2.10508381160858
H          193.19540892095597       -2.57333487202966        3.68700479689234
H          195.08425392144227       -0.29446603528687        0.67861791754593
H          197.05146352721667       -4.19744399830283        3.27659042990151
H          197.10204959155053       -5.53458603701063        5.34687418833618
H          196.69194458344842       -5.55508823239189        7.70215333506761
H          195.77476460521129       -4.37440984173040        8.48570054405474
H          194.78425565243785       -2.52416139307684        7.34133327930214
H          194.74545519451382       -1.18718167081778        5.27093066257453
H          198.55617897091264       -2.16275084483931        3.84669844027230
H          200.37875915235938       -1.14579093629500        2.14711542497624
C          124.30129497315164        0.05310444265436        0.01234068548886
C          125.51835816838854        0.07579021023079        0.00393750907814
C          135.21399970112054        0.10394815552100        0.00615971442227
C          136.43259245464512        0.09324343241268        0.00154052690097
C          146.12483238776409        0.03824300660809        0.02042207215430
C          147.34377031554442        0.04087181779862        0.01606931091491
C          157.03866978548922        0.05039499351726        0.01563023241454
C          158.25759719822665        0.05027351319259        0.01143446723946
C          167.95113702969641        0.05165197523794        0.01723738970191
C          169.17003649606144        0.05255659540610        0.01519562057734
C          178.86043310154380        0.05445075500095        0.02042334656012
C          180.07909388539889        0.05575179445992        0.01776485787444
C          189.76196159756140        0.08016052912049        0.01320701979067
C          190.97936084562349        0.09083082502755        0.00401859251741
C          126.92762061391628        0.09500137636769        0.00601791384651
C          127.55628136935005       -0.14797195872212        1.24224709075630
C          126.91506171709240       -0.42308176780516        2.47697304183858
C          127.88237007188967       -0.54669474544370        3.43697047989898
C          129.14380744887501       -0.33489298940457        2.81820797996070
N          128.89708531137944       -0.11395109834879        1.48928892912192
C          130.40109481509450       -0.33607491980448        3.43658565611742
C          130.41749776152921       -0.53427068231020        4.90533217070869
C          131.11122078741735       -1.60962532174424        5.46663210037309
C          131.12695625764252       -1.80761431279363        6.83560533882855
C          130.45787632180151       -0.91818993460639        7.68032246652734
N          130.43853106121929       -1.13492143118589        9.04752209866828
C          129.75978474130326        0.15841090379700        7.12739188664704
C          129.74067925744495        0.34311897601274        5.75622600332019
C          131.62408769296763       -0.16756406951815        2.78368208151206
C          132.89760479246482       -0.07012434675499        3.47241279960489
C          133.84081085058773        0.05740990963987        2.51540970077944
N          131.81286080361372       -0.06906893026932        1.43840997156859
C          133.14315992129781        0.04318792423640        1.24652929654453
C          133.80762819723881        0.11567637887806        0.00449241680899
C          133.17635690840802        0.20262566784941       -1.25242138484548
C          133.81268501200248        0.21783884226915       -2.51908893097549
C          132.84486651603609        0.36012800076485       -3.47634940106239
C          131.58747168317313        0.43920979039117       -2.81981592077583
N          131.83695016277289        0.32181722942364       -1.47825159678942
C          130.33064746895141        0.59695776092094       -3.41918375676321
C          130.32312961347765        0.79643651488793       -4.88780321117544
C          131.00031207634058        1.87522424515536       -5.46237899296962
C          130.99229125049521        2.07077439426311       -6.83201582269474
C          130.30583207448146        1.18164903212547       -7.66290179588849
N          130.33564786828879        1.34601621066470       -9.03726264844723
C          129.63927558019464        0.09137303227994       -7.09789765735987
C          129.64384278220621       -0.09087951111075       -5.72653579969011
C          129.10563828556099        0.57418061856284       -2.74877616534480
C          127.82596044538607        0.79466077757543       -3.39714987961284
C          126.88321441786154        0.64627588000464       -2.44299875330611
C          127.58742215383074        0.35396365348159       -1.21147674120626
N          128.92026822586769        0.33279592425016       -1.42164209137699
H          125.84945943129830       -0.51257159386372        2.60974717327389
H          127.73503627418059       -0.77254306892810        4.48039395899376
H          129.61352284343852        0.04876065746984        0.78968316047689
H          131.62618467863649       -2.30865346257877        4.81680539976457
H          131.65937772348937       -2.65279522239307        7.25806897838641
H          131.19857029953351       -1.69471874236202        9.39981625002625
H          130.24225340936766       -0.31887877337631        9.60486161335440
H          129.23691913791370        0.85113314944439        7.77783264660138
H          129.21318327946886        1.19318943855243        5.33727015471251
H          133.03027684002177       -0.07701064675986        4.54223022336094
H          134.90585719075818        0.17223798776147        2.63496225620440
H          134.87417692332997        0.11862866794277       -2.67453407516619
H          132.98801896013475        0.39167191088372       -4.54406657175407
H          131.12271535221743        0.31480680777649       -0.75792901276428
H          131.52001056643269        2.58069722064350       -4.82308395509833
H          131.51488232226100        2.91691100304017       -7.26482443566452
H          129.58193312617786        0.89939561039128       -9.53487981683151
H          130.52802206561842        2.28461452580181       -9.34898662697699
H          129.11759897039656       -0.61066573742650       -7.73916935538124
H          129.13229262713338       -0.94507037216051       -5.29678535801229
H          127.68741417334402        1.04154225072281       -4.43730478687780
H          125.81255084992634        0.72603302326983       -2.54034222287534
C          137.83864415959656        0.08055445293094        0.00563341768673
C          138.46586797137664       -0.31488146859410        1.20449505899149
C          137.82875017576436       -0.78116153229415        2.38155723484049
C          138.79442687551781       -0.99423279139035        3.32849570387042
C          140.05018424283335       -0.65662949921884        2.75707111524478
N          139.80360505202549       -0.27585843162808        1.46485874648984
C          141.30264667650434       -0.67634741132927        3.38654297904481
C          141.31389778983791       -1.00331876351534        4.83074852113177
C          142.06821886519262       -2.07825123525927        5.30947003639455
C          142.07875365530950       -2.39492597355691        6.65585030236168
C          141.34303865020860       -1.62741301618222        7.56255965240340
N          141.32015325312321       -1.96437376256735        8.90500453655974
C          140.58396277035473       -0.55248443804153        7.09271744186332
C          140.57050446485664       -0.24936587320038        5.74292518143055
C          142.52376560766595       -0.41487768173098        2.76078039759017
C          143.78894430360964       -0.32112755966647        3.46475609808983
C          144.73551245634962       -0.11683044756799        2.52406708282758
N          142.71933394574046       -0.23291995061719        1.42505032935247
C          144.04825182474463       -0.08348111684783        1.25021820529717
C          144.71911232850107        0.04015578641159        0.01527866164869
C          144.08955593565352        0.16607493910689       -1.23999670015345
C          144.72350465551750        0.20488424121366       -2.50690738229905
C          143.75766900341432        0.40367698530298       -3.45682590716322
C          142.50497459421808        0.49866581392167       -2.79431866676503
N          142.75306940494704        0.32305402090253       -1.45887320752585
C          141.25427870453231        0.75102293099167       -3.37516677699942
C          141.24351976432803        1.03884842943498       -4.82759358244106
C          141.99998432184063        2.08847574506551       -5.35604328482539
C          141.98632213874220        2.36142049162152       -6.71223054921961
C          141.21370459642037        1.58161866974549       -7.57672545895393
N          141.23551184130045        1.82035589101731       -8.94005228085250
C          140.46499392215145        0.52152599013675       -7.05889177941093
C          140.47604465196596        0.26229990297595       -5.70029774133508
C          140.03455728766946        0.75081863219891       -2.69445899191240
C          138.77187974382230        1.13460285859165       -3.29747698712180
C          137.82536062992259        0.94963084413217       -2.35278917695332
C          138.51040530073504        0.45800439016834       -1.17579723550616
N          139.83818653040325        0.37875166968220       -1.39906241162438
H          136.76866971299850       -0.94503024753102        2.48275401436751
H          138.64989537031263       -1.36625790559604        4.32960821369037
H          140.51854519273664       -0.00984566726602        0.79624639415049
H          142.63449551369598       -2.68443594610652        4.61094817284912
H          142.65851468747053       -3.23918183675560        7.01274911795982
H          142.10962996750615       -2.50454528279192        9.22132458578722
H          141.06437180756834       -1.21473019389817        9.52761751940137
H          140.00929591903403        0.04583825270850        7.79140231150545
H          139.99491878919565        0.59964073987087        5.39030871216898
H          143.91365780797008       -0.38066560543421        4.53394349068012
H          145.79622952308989        0.01901640030539        2.65882378539744
H          145.78150867140562        0.08167843122930       -2.66865957200549
H          143.89992815663786        0.46428055641129       -4.52341161229515
H          142.03996958106200        0.30660958452131       -0.73765989247697
H          142.58610833300412        2.71237405115974       -4.68997537788869
H          142.57121346863511        3.18442321188326       -7.10839493083798
H          140.43895446245003        1.46784402743403       -9.44638012279778
H          141.50432168156448        2.75472333831267       -9.20422532359555
H          139.87464543920004       -0.09611563853178       -7.72691731003812
H          139.89961577574067       -0.56807137780363       -5.30752875071967
H          138.64882405439209        1.51462105684823       -4.29881914746727
H          136.76629300350743        1.13897185932066       -2.41875582478246
C          148.74944207817902        0.04499684276868        0.01970016320957
C          149.38342525688842       -0.33983699607719        1.21871173078043
C          148.75422691385020       -0.80615088174512        2.39981783426402
C          149.72402799951914       -1.00055272424715        3.34663362864154
C          150.97453516829373       -0.65201616089000        2.77051255496684
N          150.72109783085210       -0.28329279749345        1.47613286288358
C          152.22806978825253       -0.65309199983961        3.39832447775762
C          152.24324550122159       -0.96440188243029        4.84598025997320
C          153.00603225399337       -2.02805801986298        5.33623044703853
C          153.01965581700833       -2.32937767333596        6.68610105421402
C          152.27861518561170       -1.55726202628467        7.58455017116431
N          152.25904515389189       -1.87938829690372        8.93068471012243
C          151.51105617581825       -0.49356354579783        7.10312847193283
C          151.49445776130131       -0.20597451480708        5.74998373794958
C          153.44609029808495       -0.38813755975807        2.76833098573691
C          154.71216304881528       -0.28081726916364        3.46874212161987
C          155.65592330448032       -0.08207570613457        2.52401305741493
N          153.63798526585674       -0.21778021932342        1.43047896380118
C          154.96577687417437       -0.06408188114303        1.25144688583926
C          155.63303307028931        0.05244560265516        0.01374170700417
C          154.99923257195456        0.17202175683964       -1.23993157642873
C          155.62893252518509        0.21103137811956       -2.50893894685750
C          154.65917239380508        0.40427616003175       -3.45603553570388
C          153.40820081521548        0.49508591601119       -2.78967365345892
N          153.66140312047222        0.32331039208824       -1.45473015444186
C          152.15440188638090        0.74004584528535       -3.36720535066678
C          152.13848276776304        1.02513993717702       -4.82015378187209
C          152.88816598888334        2.07764447829026       -5.35250244700834
C          152.87047578430546        2.34729768443994       -6.70932030799507
C          152.10059232789604        1.56118190830530       -7.57050826098218
N          152.11867768383701        1.79648030756893       -8.93452036497925
C          151.35856854997044        0.49830915182115       -7.04874408839841
C          151.37356642768844        0.24237509350385       -5.68957413727331
C          150.93632060531533        0.73332528021981       -2.68368509977367
C          149.67001538754383        1.10833152134348       -3.28448376050507
C          148.72632139062188        0.91611273366784       -2.33835086325040
C          149.41665038033386        0.42920289293553       -1.16261425156374
N          150.74459534534537        0.36014684792406       -1.38773076939520
H          147.69644099089740       -0.98199445578509        2.50418854124681
H          149.58586404062908       -1.36716650354781        4.35063989790745
H          151.43127993803176       -0.01304819735480        0.80416157488803
H          153.57640938463123       -2.63780028660836        4.64418109050307
H          153.60592109707292       -3.16515452211698        7.05219273091225
H          153.05348070781065       -2.40879357126968        9.25279470506986
H          151.99680261711211       -1.12516334639322        9.54505944513744
H          150.93219938203151        0.10822931675359        7.79533715060233
H          150.91188697943673        0.63427983426306        5.38799308646273
H          154.83933606451359       -0.32896510475097        4.53821031700866
H          156.71626610671106        0.06019335439916        2.65519643834948
H          156.68701604654740        0.09242645725585       -2.67372366076648
H          154.79778704765820        0.46374604950338       -4.52316587513348
H          152.95084998560569        0.30512297831682       -0.73104814450730
H          153.47219761994685        2.70625272326717       -4.68902554527014
H          153.45018352832184        3.17249363057714       -7.10853201414701
H          151.32246732270056        1.43937606871107       -9.43818912920661
H          152.38298107918246        2.73129961446642       -9.20164485072663
H          150.77044280296607       -0.12418131886803       -7.71422629361843
H          150.80250806289195       -0.59024777033498       -5.29374694595829
H          149.54258606035503        1.48778643800143       -4.28549478740188
H          147.66593313237928        1.09835259125167       -2.40241422360513
C          159.66324231887037        0.05053280151539        0.01453836733928
C          160.29593403807471       -0.33458130184587        1.21419715172944
C          159.66501896871330       -0.80011458770170        2.39472369326404
C          160.63370588437903       -0.99623864554477        3.34233216063302
C          161.88517669068068       -0.64911661791308        2.76748121634059
N          161.63342658466880       -0.27997026260602        1.47286542327054
C          163.13820417112197       -0.65112284157504        3.39634071615293
C          163.15273680122260       -0.96302988153347        4.84376992001372
C          163.91754279463157       -2.02520575968362        5.33418732702527
C          163.93093396459813       -2.32701789026100        6.68394131792704
C          163.18747223713663       -1.55699115219728        7.58217818771027
N          163.16765116225559       -1.87970631907746        8.92815997988311
C          162.41790362262773       -0.49479392038269        7.10063787756533
C          162.40173678347594       -0.20659107253577        5.74763508100706
C          164.35661858228042       -0.38580633794368        2.76715865455722
C          165.62199271982814       -0.27664843633422        3.46856987954841
C          166.56628691439016       -0.07750079080290        2.52447178378807
N          164.54941910973022       -0.21630226254751        1.42938952905657
C          165.87722190604921       -0.06145440904934        1.25131425838408
C          166.54550843471463        0.05328471838837        0.01409099936680
C          165.91311871665252        0.17010005049643       -1.24051890100923
C          166.54418723616249        0.20613980340081       -2.50894028641557
C          165.57555149124562        0.39786841543920       -3.45747411352371
C          164.32391916218450        0.49043388334453       -2.79260455218743
N          164.57559132121889        0.32128921829214       -1.45705661276304
C          163.07083685566818        0.73483682654111       -3.37179426872102
C          163.05669503507940        1.01714819127860       -4.82530214796679
C          163.80667561476469        2.06897012529144       -5.35858487862527
C          163.79091489875091        2.33581408688984       -6.71597292597128
C          163.02289494756869        1.54737832246375       -7.57673819568223
N          163.04307352158870        1.77987235008387       -8.94118010305624
C          162.28069246961041        0.48513042740659       -7.05397591892805
C          162.29359865073758        0.23211817852716       -5.69422745403962
C          161.85219090331276        0.73007995914875       -2.68930704211755
C          160.58657670000775        1.10436668936087       -3.29190790523186
C          159.64213279350474        0.91540635259993       -2.34583795134322
C          160.33137360608538        0.43102178560827       -1.16843324951851
N          161.65939973337208        0.36020748932110       -1.39256056595359
H          158.60690569012709       -0.97471528309205        2.49794532218620
H          160.49402428110216       -1.36299881033122        4.34607081836548
H          162.34487542083249       -0.01073412203776        0.80182985160913
H          164.48979058758133       -2.63345143686917        4.64236508792072
H          164.51890348466600       -3.16156384757503        7.05011815492833
H          163.96313807361912       -2.40729040735007        9.25066280480264
H          162.90301318621817       -1.12636013157381        9.54258984884412
H          161.83720191691725        0.10542937502894        7.79265629104169
H          161.81787617951653        0.63275908782592        5.38563781331750
H          165.74837967029808       -0.32363954394581        4.53818087362933
H          167.62629847992912        0.06638791158213        2.65641791349700
H          167.60235440787949        0.08664982508470       -2.67243523390304
H          165.71531654087798        0.45515272057279       -4.52457460680616
H          163.86418074941375        0.30468268290760       -0.73418470294534
H          164.38944265992649        2.69916045216847       -4.69548600406371
H          164.37073822139402        3.16051407809397       -7.11605007238124
H          162.24849781841047        1.42022457452456       -9.44559924940061
H          163.30645212758785        2.71448338771637       -9.20987440720314
H          161.69408830209153       -0.13920520690035       -7.71907301955000
H          161.72240506824789       -0.59996567409784       -5.29746170978786
H          160.46013867163467        1.48108636214700       -4.29408058502290
H          158.58182519973207        1.09778234835363       -2.41122636436870
C          170.57573293739284        0.05425931285583        0.01862218551503
C          171.20805829515811       -0.32622794448872        1.21986966295254
C          170.57594540007179       -0.78545704659174        2.40231405148204
C          171.54385114316418       -0.97865024115620        3.35123582230490
C          172.79620119773435       -0.63669144210901        2.77512100039958
N          172.54553044693768       -0.27272763186790        1.47878776745686
C          174.04922066291346       -0.64057754798649        3.40381990118435
C          174.06305775578787       -0.94490365579900        4.85286590444620
C          174.82431631058753       -2.00669096852649        5.34958442928961
C          174.83915200026556       -2.29860059920069        6.70151496745908
C          174.10062309768676       -1.51895465757999        7.59552636771793
N          174.08321722911379       -1.83083407951345        8.94410014511902
C          173.33348010672131       -0.45796293777605        7.10753637619560
C          173.31594921330029       -0.17957778237135        5.75249929782137
C          175.26828183699908       -0.38228045740993        2.77276038746072
C          176.53539572890480       -0.27931640555865        3.47213216116557
C          177.47903030855659       -0.08402330858366        2.52662341123489
N          175.45948226670333       -0.21319786983261        1.43487370926083
C          176.78763038290174       -0.06291524662455        1.25464849600357
C          177.45439430526258        0.05671441145527        0.01742003224359
C          176.82281415216428        0.18025660940085       -1.23668732801484
C          177.45524525920447        0.22359401960757       -2.50434320959417
C          176.48725191478383        0.41750311074133       -3.45301602727018
C          175.23464527586034        0.50391820342443       -2.78911098259907
N          175.48517903600322        0.32970558587621       -1.45402220325655
C          173.98135230250728        0.74583801232967       -3.36879420203827
C          173.96732305935137        1.03227840674416       -4.82157827540274
C          174.71252745775377        2.08954110468581       -5.35070066120330
C          174.69661626570957        2.36087849247658       -6.70721929839538
C          173.93325754538697        1.57158513802433       -7.57129797724680
N          173.95346085307523        1.80871425411451       -8.93496578726798
C          173.19587540906639        0.50394505053645       -7.05270568549000
C          173.20889465955941        0.24639529835958       -5.69379573481138
C          172.76247536694268        0.73545301951394       -2.68692313915392
C          171.49555735960877        1.10489909581926       -3.28975644931169
C          170.55190919884822        0.91348970961450       -2.34346208372116
C          171.24291076041033        0.43271603166169       -1.16551532921581
N          172.57097458364800        0.36534349399939       -1.38999065533456
H          169.51749985170733       -0.95765003232350        2.50605279046023
H          171.40327632724868       -1.34039489281338        4.35667423199975
H          173.25773819293903       -0.00724491966665        0.80705446478494
H          175.39282292212511       -2.62228530183585        4.66117971702204
H          175.42476279678399       -3.13257524836840        7.07274338614033
H          174.87762041604597       -2.35877571557237        9.26865646242646
H          173.82330370740561       -1.07148117346050        9.55312251582719
H          172.75609243832500        0.14932705126210        7.79616418983107
H          172.73430740691285        0.65912897341105        5.38546388784577
H          176.66353294040442       -0.32777469199095        4.54145919150830
H          178.54006452841361        0.05441190099361        2.65683457144504
H          178.51387731704733        0.10716444649013       -2.66723593568000
H          176.62795271357740        0.48017811759208       -4.51969486606173
H          174.77276459535034        0.30873915344137       -0.73224237719833
H          175.29163348278763        2.72037387545105       -4.68501600267822
H          175.27269590198239        3.18980000620767       -7.10396291613390
H          173.16141916044529        1.44616488523109       -9.44129012843729
H          174.21170817410274        2.74571778657440       -9.20029316897747
H          172.61286148537681       -0.12096844494851       -7.72041106720337
H          172.64138624299378       -0.58978493334345       -5.30037780701613
H          171.36762866276581        1.48021394197062       -4.29226146967588
H          169.49104420297743        1.09239823918548       -2.40889894179309
C          181.48544531262320        0.05540643239834        0.01885643178151
C          182.11694136031139       -0.37953439185839        1.20149317394789
C          181.47961372039589       -0.88415461334162        2.36288152704480
C          182.44656809939724       -1.14513099719302        3.29593987814187
C          183.70405317716128       -0.80128032302521        2.73162856485416
N          183.45595895378699       -0.36308665132559        1.45778389700467
C          184.95979055395756       -0.88177709733052        3.34899711759259
C          184.97174841772139       -1.28439316386022        4.77447564292850
C          185.69034657764797       -2.40782072876755        5.19224386258536
C          185.70150205020843       -2.78964647731387        6.52178201088358
C          185.00215205597127       -2.04149379272201        7.47231961076129
N          184.97926778074714       -2.44200360734601        8.79737019179059
C          184.27765224778190       -0.91910440417358        7.06303800534055
C          184.26358852732517       -0.55022778161332        5.72971571882380
C          186.18196894200793       -0.61241597517818        2.72849019416361
C          187.45791577540012       -0.61108101925535        3.42016270964365
C          188.39797641899565       -0.34705867491760        2.48818996621144
N          186.36563899160834       -0.32276746529072        1.41092347749942
C          187.69529762016870       -0.18060981790671        1.23252759190647
C          188.35424097186518        0.07281452767820        0.01307388460583
C          187.72602689937574        0.31831035664088       -1.22337107893807
C          188.36751921858630        0.49492539821931       -2.47564997911287
C          187.40094910740416        0.73595926019275       -3.41443700397193
C          186.14049239486752        0.72338291518094       -2.75908967043720
N          186.38636835338940        0.44851421933614       -1.44007795590234
C          184.88288192545568        0.95829486803064       -3.33098509757595
C          184.86230516671637        1.31630188302230       -4.76826165542764
C          185.56231658208026        2.42790956306536       -5.24425811635401
C          185.54113966011582        2.75838899423544       -6.58775519427605
C          184.81771064901216        1.97584879827931       -7.49135907810522
N          184.83550048107091        2.27305145595554       -8.84326648478866
C          184.12403427092559        0.85584657520032       -7.02560161603608
C          184.14207556748926        0.53871833710748       -5.67944953638775
C          183.66255606963827        0.87619694284781       -2.65630224535737
C          182.38897872605665        1.24400762550079       -3.24616782054014
C          181.44877220698382        0.99784959720374       -2.30944868946117
C          182.14799711329033        0.48235848872025       -1.15087825308822
N          183.47710469270061        0.44596905186913       -1.37732530813997
H          180.41812464943368       -1.03953653233710        2.46269948582537
H          182.30230447182331       -1.55410612495568        4.28256368284978
H          184.17148536463165       -0.07634117190025        0.79834577068938
H          186.22786425214349       -2.99943219983163        4.45935688081211
H          186.25376905751244       -3.67023413510893        6.83133951100700
H          185.75329341537534       -3.02200563973414        9.07956166454090
H          184.75494343799255       -1.71449781010234        9.45734012322971
H          183.73053506366321       -0.33577151876466        7.79568077597279
H          183.71525777027341        0.33438662550319        5.42438194321302
H          187.59461304117471       -0.77011230347710        4.47762746821539
H          189.46413583619380       -0.25270104755985        2.61835885479628
H          189.43142405304454        0.43072993992003       -2.63537492310368
H          187.54790855513468        0.89473376877699       -4.47021036590273
H          185.66855599549996        0.34481879190853       -0.73080574554554
H          186.10977095177657        3.05332012304533       -4.54741678770881
H          186.08250289097197        3.62834288040923       -6.94346265867855
H          184.06309049829841        1.89908190631142       -9.37113912532854
H          185.05462056518721        3.23089066008425       -9.06593119240462
H          183.57134614982246        0.23708024259218       -7.72411885964894
H          183.60875817316733       -0.33728411256267       -5.32689231055276
H          182.25465635146813        1.65621749040538       -4.23321978344839
H          180.38475440691471        1.15908475705975       -2.36948451944504
