118
 energy: -212.603622269195 gnorm: 0.000478923326 xtb: 6.5.1 (b24c23e)
Ni          16.86598029361522       -0.05864739011212       -0.05764618890046
C           13.48070025172886       -0.10440258951668       -0.22051770012972
C           14.14894238673808       -1.31024552383518       -0.27082049202682
C           13.48901510534322       -2.57612386930530       -0.36996652549773
C           14.44517216927822       -3.52426528387835       -0.23185494201771
C           15.69221659892098       -2.83706078260463       -0.06415659945800
N           15.50217525750174       -1.47837487962231       -0.11318864772008
C           16.89607373161758       -3.46993807588573        0.21792934681709
C           16.91099410282275       -4.94798903309575        0.35299619555133
C           16.63093652889239       -5.76087992459476       -0.74497266161686
C           16.64841596022183       -7.14218346666923       -0.62539972107020
C           16.94314142961022       -7.72541115934228        0.60457999587543
O           16.96848363759123       -9.07367346279817        0.76674112349532
C           17.22232335678489       -6.92360272965907        1.70974525762720
C           17.20825486694914       -5.54601321140142        1.57932177883622
C           18.09032337250357       -2.77644189384324        0.36445099777858
C           19.35001079393254       -3.40839024264760        0.61447531709883
C           20.29551900450896       -2.44175671478654        0.53432967481597
N           18.26401640795807       -1.42583283222833        0.15909379652568
C           19.61575586749364       -1.22366916677307        0.22975815623717
C           20.27618128141653       -0.02160627839901       -0.03910938155810
C           19.59075016109881        1.17214801932970       -0.27966380642070
C           20.24167642240207        2.41031685541742       -0.56535775933494
C           19.27847161652610        3.36317996746479       -0.58469770926295
C           18.03820658319400        2.70208032986092       -0.31591840325893
N           18.23697249608075        1.34752333751511       -0.17675121760711
C           16.82379784991988        3.36344060557728       -0.17823711328927
C           16.81933501259057        4.84525716020162       -0.19582705860187
C           17.53424337342600        5.56191292715941        0.76749437166717
C           17.53279319294295        6.94517745771440        0.76807952709258
C           16.81760687332870        7.63564998291235       -0.20886777889982
O           16.83952644121268        8.99311411379688       -0.18094956431540
C           16.10661972801772        6.93492659963497       -1.18030723281211
C           16.10733983600361        5.54851258210311       -1.16778922513382
C           15.61906518344485        2.68661854738257       -0.03668333851382
C           14.34618570964861        3.33096624162756        0.10471429565502
C           13.40654616791713        2.35701869440032        0.06314488102479
C           14.10641265162215        1.11705851381517       -0.07754980317807
N           15.46271915763185        1.32400106448197       -0.10017135708470
H           12.39824088856945       -0.11938969205031       -0.27224885034064
H           12.42686810663740       -2.70250374400048       -0.50732414776992
H           14.32711192280967       -4.59567620315526       -0.22701571241042
H           16.41347667920067       -5.30762846564299       -1.70574061420051
H           16.43581106275839       -7.77031009702869       -1.48387569598608
H           16.76203495214119       -9.53137400508793       -0.05925690842667
H           17.44692157673975       -7.39135385171141        2.66034417644434
H           17.41546812499057       -4.92175149293390        2.44125967371939
H           19.48631702642406       -4.45986082796695        0.80737149262487
H           21.36138390700865       -2.53371727825697        0.66303913475648
H           21.30067852991868        2.52304808239923       -0.72935593049233
H           19.38699684231711        4.41838456427962       -0.77545521462974
H           18.08203390899909        5.02422383792369        1.53331311436230
H           18.07916733170218        7.50308514497950        1.51845169704538
H           16.31129417549125        9.36891439340006       -0.89796354091092
H           15.55718312112237        7.47671981897753       -1.94276148448204
H           15.56465484460528        5.00500479941337       -1.93325125126246
H           14.20243695270197        4.39308421422454        0.21955163146821
H           12.33399825417460        2.44957615089389        0.12757865355972
Ni          27.72176251754959        0.04977136686010       -0.06539035000606
C           31.10703659418767        0.07166355919491       -0.23325294995578
C           30.43876438482420        1.25780381341111       -0.45602699562495
C           31.09869355366460        2.49635908813773       -0.73575743492237
C           30.14254014506882        3.45451204399320       -0.73509343718153
C           28.89550005948175        2.79848455697425       -0.47050431483695
N           29.08552719379048        1.44681128506711       -0.32414658943446
C           27.69164994391249        3.46530625138479       -0.28215742530416
C           27.67673974598604        4.94744335650558       -0.36055209297881
C           27.95679975613480        5.59439856205199       -1.56378745172207
C           27.93933096866057        6.97856865558498       -1.64362385362036
C           27.64460406132227        7.73222604804633       -0.51004381661660
O           27.61924778245814        9.08980442416225       -0.54299611018067
C           27.36541650696234        7.09726864327823        0.69872148941413
C           27.37948116876449        5.71521889167165        0.76728851522899
C           26.49738479066502        2.80002330904458       -0.03769950719135
C           25.23770288572121        3.46130716151102        0.11906542774172
C           24.29218708894990        2.49317931208374        0.17842994991269
N           26.32368619287515        1.43392311490195       -0.04715997308960
C           24.97194706397500        1.24399759437592        0.05180289146800
C           24.31154419581971        0.01577811255977       -0.04177301476179
C           24.99701403282375       -1.20011672463923       -0.10859722059514
C           24.34609440542384       -2.46646729642353       -0.21374794972077
C           25.30929532729170       -3.41224419026604       -0.09616606507385
C           26.54956029788073       -2.71941928789901        0.07499682880060
N           26.35080125821869       -1.35890402430124        0.01838007659999
C           27.76394886393763       -3.35421702482131        0.30616520093517
C           27.76838819919335       -4.82322478035705        0.50136181389349
C           27.05348624268586       -5.39423447142551        1.55755268941669
C           27.05494397087352       -6.76309939929961        1.75662369102692
C           27.77013109363961       -7.58661040301310        0.88886364442450
O           27.74822398080660       -8.92601917314318        1.11128674418462
C           28.48110670394442       -7.03253261651729       -0.17307908531551
C           28.48037953405707       -5.65867043259913       -0.35963396564397
C           28.96869777369557       -2.66411386017447        0.34914595533245
C           30.24157370351806       -3.28150844277174        0.58151924453503
C           31.18121539902208       -2.32360083957282        0.40063236487914
C           30.48135074655342       -1.11665971907230        0.08348764279328
N           29.12504525781941       -1.32471122990636        0.09079503770669
H           32.18949339735144        0.07910330848953       -0.28663208685434
H           32.16084258715058        2.60170942904209       -0.88983186899609
H           30.26059507698963        4.51553583585204       -0.88400881350232
H           28.17426893379159        5.00799554513332       -2.44958607645079
H           28.15193561215755        7.47703217462676       -2.58333552675042
H           27.82569040610138        9.42426624839631       -1.42611577967045
H           27.14081488347659        7.69656192352991        1.57237751067594
H           27.17227753893250        5.22107717243428        1.70987371504479
H           25.10140115751258        4.52957319208507        0.15915038066677
H           23.22632835156504        2.60266697671447        0.29266587184493
H           23.28709036020409       -2.60155523299356       -0.35985869410963
H           25.20077535848434       -4.48389870386955       -0.13355027194159
H           26.50569716492885       -4.75222143006136        2.23829413928102
H           26.50857625930344       -7.20756042452373        2.57929038173577
H           28.27645812585620       -9.40081751139779        0.45561957991336
H           29.03054109803912       -7.67812516985741       -0.84990203612090
H           29.02306017420508       -5.23062652789941       -1.19516765831926
H           30.38532753061573       -4.31615645950764        0.84756859046222
H           32.25376235192017       -2.40595806533060        0.47768637102194
C           21.68570952966741       -0.00901608296835       -0.04789172507777
C           22.90201763884550        0.00204272945649       -0.04868631883955
