181
 energy: -329.899455258198 gnorm: 0.000512071026 xtb: 6.5.1 (b24c23e)
Cu          31.10961810936329       -0.02405109360445       -0.01102707038131
C           27.70333526027182       -0.05793670916677       -0.03942069756347
C           28.33897401240220       -1.28898474268288        0.02284707989657
C           27.66452372580820       -2.55181704496297        0.11761188830025
C           28.62396122893272       -3.50892601737788        0.17074551098415
C           29.89427682218903       -2.83945368234732        0.09851855138407
N           29.68964599735289       -1.49191981416003        0.01892870039716
C           31.13929522690341       -3.47265843135903        0.12880694260130
C           31.15340165845999       -4.95567402270728        0.19577495666171
C           30.60125137611489       -5.71808755083759       -0.83365774952272
C           30.61610809895908       -7.10333971886493       -0.77587987824231
C           31.18130521576563       -7.74307517136889        0.32473364105688
O           31.21451488779946       -9.09748709822362        0.42331129958411
C           31.73225831112670       -6.99326155370639        1.36216310979168
C           31.71925302087287       -5.61141379773260        1.29180674901493
C           32.37177545836715       -2.81674798683069        0.10260109958836
C           33.64948227175010       -3.47078524118655        0.08027071763859
C           34.59515134982473       -2.49768854830085        0.05129437688845
N           32.55984786485755       -1.46012472960936        0.07080506063354
C           33.90343811330811       -1.24377988372208        0.04710476201644
C           34.53826359790193        0.01006991155707        0.01998494728903
C           33.87964779286752        1.25122352119254       -0.01744364279282
C           34.54795230004289        2.51580762885227       -0.08764287831118
C           33.58419400508538        3.46968075240122       -0.14498250886041
C           32.31836779287306        2.79395571696552       -0.09909735570390
N           32.53204101067755        1.44257753546030       -0.02718872289581
C           31.07349475315318        3.42433712301931       -0.15415507136285
C           31.05718885460329        4.90722718946508       -0.22399788827825
C           31.58789974374358        5.67573986714708        0.81471310534076
C           31.57298019131769        7.05805730478490        0.75298133728116
C           31.02854757561144        7.69435163167418       -0.36093404374191
O           31.03396796137084        9.05240288451600       -0.39152528341802
C           30.49742821252308        6.94135021678747       -1.40537118550561
C           30.51079641854003        5.55694758941065       -1.33107997172424
C           29.84113542581488        2.76590893258818       -0.15075481316600
C           28.55783372946443        3.41427958768607       -0.15454384728631
C           27.61691935204816        2.43795258827644       -0.12611097406726
C           28.31559280338254        1.18516052243884       -0.09601633386779
N           29.66229231659778        1.41304180233115       -0.10920446604885
H           26.61819441322473       -0.06777252965153       -0.03133527218540
H           26.59330218697326       -2.67546723648636        0.14707565792897
H           28.49016838425120       -4.57471136325718        0.26411639346858
H           30.17168037985325       -5.22149893144831       -1.69681759432115
H           30.19181556292846       -7.69110496570536       -1.58289234863386
H           30.80634834712647       -9.51623728258949       -0.34626544187457
H           32.16427725949102       -7.50395339459167        2.21394532390607
H           32.13781129885724       -5.02795031638503        2.10425657348903
H           33.79991106089199       -4.53821964008807        0.07333568727629
H           35.66739856262458       -2.60949833983546        0.02820296819741
H           35.61824335669473        2.64655419704310       -0.10070407749269
H           33.71559786785144        4.53657737987522       -0.22573718386448
H           32.00066177817800        5.18123240934555        1.68694107608653
H           31.97817575274790        7.65631049111731        1.55971586795936
H           30.63330969206960        9.38740533280239       -1.20486274812280
H           30.07773897123571        7.44072509253066       -2.27213455354985
H           30.10833874787410        4.97175839402109       -2.15054087093018
H           28.40317066594510        4.48130090185096       -0.16228494983883
H           26.54334015502984        2.54297224215585       -0.11777097555035
Cu          58.05450667186056        0.00250721350468        0.01196524781761
C           61.46052519959760        0.04190192876061       -0.04847017690607
C           60.82037105047831        1.26801605121150       -0.14843456620744
C           61.49063129841791        2.53354565727044       -0.23586474182184
C           60.52795129693300        3.48696376240468       -0.29560041995200
C           59.25968497747893        2.81118752074513       -0.25382144094939
N           59.46881013158156        1.46533284647905       -0.15831910027194
C           58.01319944620859        3.44157882147232       -0.27529529186117
C           57.99523320752671        4.92021603068024       -0.40827753684053
C           58.51279194663353        5.53323215358364       -1.54947371178062
C           58.49267229212732        6.91303573898678       -1.68365148953548
C           57.95707320580853        7.69848508406858       -0.66558243532971
O           57.91926606717631        9.05341366975021       -0.75483174590363
C           57.44182739438331        7.09905376759860        0.48211906511729
C           57.45969538829355        5.72068598398468        0.60343798457765
C           56.78333626739879        2.78659204356117       -0.18590470831085
C           55.50288807189599        3.43193727170803       -0.25341486535314
C           54.56076672361056        2.46030212993413       -0.15261878204494
N           56.60018525069513        1.43496870176680       -0.05622624537581
C           55.25711934491493        1.21478573761806       -0.03226009087131
C           54.62609678607393       -0.03777831534372        0.06173375716094
C           55.28878143406428       -1.27436029333193        0.14483120336724
C           54.62518866088156       -2.54139449006869        0.21343784856229
C           55.59245293005340       -3.49118747589889        0.28005360480700
C           56.85550015564866       -2.80923375567528        0.26007512305143
N           56.63717176793816       -1.45981976686895        0.16813616698252
C           58.10250791470679       -3.43643043146380        0.30042662526738
C           58.12343989544289       -4.91535026884703        0.42833765992511
C           57.58428701913616       -5.53918087754564        1.55594648863707
C           57.60597544093597       -6.91693880585412        1.68240324766877
C           58.16537271678499       -7.69509445558055        0.67063164370467
O           58.16705684042691       -9.04465076343472        0.82479461705486
C           58.70380429546914       -7.08747669736059       -0.46112470037158
C           58.68389091910299       -5.70584952664004       -0.57524460489605
C           59.33263470299526       -2.77801652427307        0.22829840114637
C           60.61816687298960       -3.41629415131171        0.31253023587666
C           61.55560355966799       -2.44178266634973        0.20828490166440
C           60.85250824800066       -1.19883055145059        0.07017678682622
N           59.50655578012864       -1.43074190720263        0.09068704970388
H           62.54562588910460        0.05573294964589       -0.05170105308973
H           62.56162808412182        2.66231241447586       -0.24149831974577
H           60.65823863146293        4.55595105208211       -0.34865726235637
H           58.91920029776900        4.92203561872125       -2.34798288456137
H           58.88956874227321        7.38366242864176       -2.57678851139882
H           58.29951278647804        9.36156470152354       -1.58828145909375
H           57.03275118605296        7.72255894246112        1.26777770136277
H           57.06870545406709        5.25510974907826        1.50122428110990
H           55.34785443903868        4.49151194074881       -0.37709530336463
H           53.48787883829063        2.56719991299595       -0.16604017805819
H           53.55545799970042       -2.67709881683398        0.20536769304645
H           55.46571477668861       -4.56077032723686        0.32492972915692
H           57.15971380693349       -4.93336711753493        2.34868178129602
H           57.19488916817691       -7.40270192808557        2.55872788731212
H           58.57712394544806       -9.48464112500792        0.06815010291394
H           59.13464168523740       -7.69727695418930       -1.24807688024787
H           59.09241634722591       -5.23481220557965       -1.46245737286212
H           60.77671020161092       -4.47411438335179        0.44808050750223
H           62.62956010603959       -2.54097149652156        0.22945101905102
C           37.16753266956482        0.02789010732858        0.01693901223845
C           35.94591876010898        0.02207251021856        0.01935410997078
C           38.51847371649746        0.03108476356719        0.01148369538325
C           39.74019896854795        0.02921567392973        0.00675260330873
C           50.64597750371857       -0.04887917163815        0.03131130030434
C           49.42439466111988       -0.03734314336790        0.01504597778725
C           51.99687774796302       -0.05326043869051        0.04543560583834
C           53.21845988444243       -0.05280970477599        0.05649953014051
Cu          44.58218020462729        0.01060646280674       -0.01404998996544
C           41.14724892155349        0.02564068194472       -0.00082736364609
C           41.80261333609496        1.09106808651931        0.64103003150055
C           41.13264159567422        2.14106873894936        1.34689114187739
C           42.09435351970864        2.97024201891453        1.82704845415534
C           43.35879406439216        2.43615893076182        1.40799094349234
N           43.14830584221974        1.28729326178922        0.69271620248071
C           44.60260795948841        2.99787570828547        1.70592520829108
C           44.61141291301868        4.28118505250842        2.45111853909772
C           45.21928752503051        4.36930992117604        3.70602419579213
C           45.22531647672514        5.56097243071263        4.40892398458513
C           44.62489277837816        6.69150398615816        3.85777621624811
O           44.65142127278131        7.84575436766720        4.57291008855956
C           44.01862849159944        6.62019918530303        2.60573197206031
C           44.01112998963263        5.41968577179261        1.91245223834281
C           45.83870912070602        2.44521173335810        1.36272864727767
C           47.11131828388630        3.06026350837062        1.61141180868305
C           48.06182374685147        2.21520537635141        1.13672043769080
N           46.03311874698871        1.24689952468470        0.72865095201527
C           47.37679219219153        1.08514145285062        0.58584620791017
C           48.01749180913686       -0.02147836373099        0.00102574659241
C           47.36181041607417       -1.10995088187966       -0.60040458286131
C           48.03081711664274       -2.24299509284706       -1.16483763634790
C           47.06931923846430       -3.06050350607372       -1.66495709990543
C           45.80596158694978       -2.42802631908804       -1.41296000504543
N           46.01667829799329       -1.24419152693476       -0.75760651354111
C           44.56276181011240       -2.95859622371970       -1.76474131837620
C           44.55636584545454       -4.22796234886630       -2.53405690037735
C           43.95931613660200       -5.37479764246139       -2.01024722240801
C           43.95386449980734       -6.56127744901156       -2.72739516529750
C           44.54307411333099       -6.60930288673842       -3.98852710894202
O           44.55615756971790       -7.74930771488242       -4.72683564799793
C           45.14013577916869       -5.47001237367001       -4.52489318259617
C           45.14793018387945       -4.29281301797084       -3.79797075200282
C           43.32631305362194       -2.38998474625128       -1.45089894589011
C           42.05378147024064       -2.91155031179975       -1.86100731381724
C           41.10308038878429       -2.08156526740665       -1.36080171842984
C           41.78803581661342       -1.04200497302601       -0.65377163902994
N           43.13157477784257       -1.24674254583950       -0.72213161181584
H           40.06362294863148        2.21976675042941        1.46432837455372
H           41.96242375340795        3.85644450593636        2.42647024266185
H           45.67506492352356        3.48675328418658        4.14076859298015
H           45.68916972713738        5.62982498972850        5.38508462207185
H           44.20539126897420        8.56228440455303        4.10164853843693
H           43.55651415283086        7.50375064644584        2.17859573568057
H           43.54969988052866        5.36888849881228        0.93250994170931
H           47.25585049102765        4.02246417255571        2.07544484938558
H           49.13261613671877        2.34206356423002        1.14588076595853
H           49.09921925422566       -2.38889255230462       -1.16773775585926
H           47.19974574091159       -4.01534792399850       -2.14804140963804
H           43.51067396209481       -5.34196206491073       -1.02363964410107
H           43.49466537680647       -7.45186124577929       -2.31186780782143
H           44.11503664042390       -8.47368369919561       -4.26321153705785
H           45.59096739243548       -5.52080832154136       -5.50825210621560
H           45.60239383069565       -3.40340945668421       -4.22002443416662
H           41.90924644356522       -3.79153680770349       -2.46666348688615
H           40.03226442086704       -2.15280100504110       -1.46596108284821
