134
 energy: -266.237851063037 gnorm: 0.000669882938 xtb: 6.5.1 (b24c23e)
Zn          15.71553770266629        0.01737514379339        0.04493522569508
C           12.30858048006402        0.13613254051338        0.09199561404456
C           12.93293852032246       -0.18017310934106        1.29235177547492
C           12.25345607704075       -0.48244059277518        2.52127573363063
C           13.20793501545308       -0.73151144753514        3.45191848208052
C           14.48387544913352       -0.57358812348573        2.80440635095493
N           14.28153420050353       -0.24967745177431        1.49522636669510
C           15.73339545667787       -0.75001197906171        3.41138708689336
C           15.74293113413044       -1.08529088108847        4.85643680929385
C           15.20814884310597       -0.19650425382483        5.79260021249286
C           15.21972444457825       -0.50478046786565        7.14300131440971
C           15.76631823992611       -1.71284472278543        7.54468769681999
S           15.79143952300834       -2.10738002770339        9.25220679305962
O           15.71245215904561       -0.91840773023289       10.04822196502400
O           14.36376061905481       -2.87902878953266        9.33829363799883
O           16.82331125602578       -3.05917272920864        9.54479022187220
C           16.30519625313163       -2.61454201125938        6.64113311184664
C           16.29214779141487       -2.29356136843797        5.29401739562830
C           16.97547400908532       -0.63965932443787        2.77572310458884
C           18.25342761690112       -0.76440122261526        3.42131456612633
C           19.20216123586412       -0.57984098952917        2.46842298905007
N           17.17223931945486       -0.36713293725768        1.44886973480851
C           18.51496635995591       -0.33252215451531        1.23491707171121
C           19.14960161937841       -0.09597622354193       -0.00104154942374
C           18.49957438122589        0.17819551613884       -1.22113516733320
C           19.16840004057444        0.38201189428320       -2.47249443486652
C           18.20863243993789        0.63011759087998       -3.39972575533209
C           16.94314534492511        0.58976214259598       -2.71983857436421
N           17.15687800620932        0.30083300104454       -1.39908276716875
C           15.69481567125293        0.79012606841955       -3.32003528283231
C           15.68644543764860        1.13212274141257       -4.76369751010849
C           15.06033828128727        0.28996211612927       -5.68617908409819
C           15.04716828294917        0.60798404810357       -7.03425939431485
C           15.66442041169179        1.77728850453469       -7.44798700746764
S           15.63690506185088        2.19308994991150       -9.15150022680865
O           15.80586393993559        3.60481368647200       -9.34230968803468
O           17.02179700536483        1.47800380665482       -9.61000355618512
O           14.54368408740827        1.53595877677576       -9.80229300278600
C           16.29034901119135        2.63462505970127       -6.55748722309953
C           16.30015307984466        2.30465276408206       -5.21238305116550
C           14.45339801242438        0.70130759926996       -2.67827045861392
C           13.17458162076264        0.95440742759089       -3.28889122655430
C           12.23085655666528        0.76804831773121       -2.33305342577725
C           12.92075735298252        0.41094865488548       -1.12481060663424
N           14.26469757999446        0.38493379413907       -1.36509439658929
H           11.22380291623419        0.17434118172041        0.10666024948582
H           11.18190299593050       -0.50573358797305        2.64268732060882
H           13.06491576805248       -1.00901006589207        4.48398542496562
H           14.79750669111637        0.74943537929295        5.45919822218781
H           14.81821782906357        0.18202556107898        7.87748866137760
H           14.25757461568868       -3.28798391764683       10.20569280201434
H           16.72945347675729       -3.54751974676026        6.99029289103674
H           16.69897499076813       -2.98963902977024        4.56974451462522
H           18.40482514962781       -0.95397822446425        4.47172067978911
H           20.27398671793950       -0.60111750046726        2.58436632734911
H           20.23580945902625        0.33215725289853       -2.61713457457509
H           18.34350929175433        0.81139992942567       -4.45386713992630
H           14.59311125104108       -0.62599765539195       -5.34374505006734
H           14.56367957950150       -0.03714623913611       -7.75697578364058
H           17.36856806239883        1.90716310775128      -10.40188456015303
H           16.75278115882249        3.54687772424997       -6.91299754566237
H           16.77231736346969        2.96866975232142       -4.49767629520967
H           13.02337560797529        1.24907682765916       -4.31497575168054
H           11.16083749745056        0.86911186630072       -2.42412637050519
Zn          31.75773562040407        0.03296089519814       -0.03522266462702
C           35.16452949587062        0.16168889467117       -0.03526729230608
C           34.54000187288405        0.31112634531810       -1.26750863044647
C           35.21942718754069        0.48462552523466       -2.52112299083669
C           34.26492113248445        0.59573413831563       -3.47807313923336
C           32.98899025744593        0.50249326873028       -2.81810558107562
N           33.19142613248951        0.32036041468718       -1.48179748903359
C           31.73942869244689        0.56192497953649       -3.44738387153738
C           31.72984141516901        0.78381400748244       -4.91414429198012
C           32.26489484872734        1.95550904091897       -5.45568339470866
C           32.25326030165903        2.16814863876836       -6.82438032504260
C           31.70622586221645        1.19427812940934       -7.64406083317185
S           31.68116741864648        1.45906955186006       -9.37647394106256
O           31.76001483913196        2.85816478321844       -9.67632320799730
O           33.10906021759198        0.77426703027281       -9.74158434583269
O           30.64952473597512        0.68279305537735      -10.00049040342371
C           31.16716344581840        0.02261028812245       -7.13765933755094
C           31.18034757703013       -0.17704942270239       -5.76726543960184
C           30.49737208721526        0.42998549104649       -2.81577420297717
C           29.21934951311542        0.55231577556304       -3.46164450095729
C           28.27068565261808        0.37272511371853       -2.50771298174234
N           30.30071528729658        0.19405845589545       -1.48186268759523
C           28.95800193341621        0.14775522299468       -1.27003936422020
C           28.32373970430786       -0.08829653055740       -0.03385086786368
C           28.97407784535297       -0.28378837524854        1.20119186406389
C           28.30524196802236       -0.55639422116553        2.43940165930729
C           29.26502237020749       -0.66892451219031        3.39259457497495
C           30.53055731494892       -0.45585302628052        2.74573592691030
N           30.31680789721162       -0.23626241296803        1.41173265878216
C           31.77894991909909       -0.49241742084285        3.37735867885090
C           31.78733353655359       -0.70806721910596        4.84516722809475
C           32.41404404383720       -1.83097365978415        5.39156346930128
C           32.42726167628216       -2.03315572818423        6.76182729210851
C           31.80936034814558       -1.09963285551017        7.57801582810168
S           31.83708465799052       -1.34166795830419        9.31472235400734
O           31.66877558413343       -0.09972111031207       10.01268932323225
O           30.45184552818612       -2.17496574328037        9.47705445637225
O           32.92994327098473       -2.19295996152719        9.67737558147285
C           31.18266424106908        0.02547229869474        7.06693825399453
C           31.17289034823606        0.21549710545415        5.69507444701207
C           33.02031173821168       -0.33830647295282        2.74793007584055
C           34.29927733086728       -0.32915775463385        3.40859553725925
C           35.24280050927504       -0.14860161153396        2.45145355778962
C           34.55264823276016       -0.03341154656389        1.19695407245959
N           33.20874348615204       -0.14661335325313        1.41082580809497
H           36.24928385882345        0.20330482328951       -0.03489528893903
H           36.29097225047961        0.50891683826413       -2.64242529860783
H           34.40802517779287        0.71886246684860       -4.53966606473775
H           32.67582584105287        2.71113949265462       -4.79633938213227
H           32.65499053104719        3.07765568876740       -7.25308727882210
H           33.21564319775630        0.71573404738105      -10.69873033600090
H           30.74259793249521       -0.71516353125698       -7.80683545542535
H           30.77337391778917       -1.09150413560277       -5.35160878063268
H           29.06785367994629        0.76334792858763       -4.50794407329393
H           27.19885590370813        0.39624112853727       -2.62319007588356
H           27.23777112095232       -0.65534373759411        2.55546369288228
H           29.13006032663665       -0.88999398724423        4.43909763532543
H           32.88167424943305       -2.55555472163517        4.73517185418493
H           32.91129572690631       -2.89923286270374        7.19530384637811
H           30.10789251936693       -2.07220821631467       10.37288571480022
H           30.71966525273158        0.74163850837293        7.73415038177727
H           30.70023710128389        1.09620274428747        5.27602543213907
H           34.45072065688689       -0.43499130446379        4.47085944694091
H           36.31284206013489       -0.08840283896008        2.57326385972545
C           24.35079645574570       -0.15438413911715       -0.02755420944877
C           23.12252871898313       -0.15657948580453       -0.02719058734931
C           21.77826219249824       -0.14717201494471       -0.02087977564949
C           20.55453985062289       -0.12837001991669       -0.01544160459916
C           25.69506062571688       -0.14283330604814       -0.03109970621458
C           26.91883641743005       -0.12482814146734       -0.03119470226952
