378
 energy: -648.280388966445 gnorm: 0.000790693237 xtb: 6.5.1 (b24c23e)
C           58.62541888365506        0.14210593867359        0.01609849055572
C           59.25361967074939        0.14970963518974        1.25453602018493
C           58.63024134403383        0.15127155073336        2.53466612714610
C           59.61434975178567        0.16267217649864        3.48232985298220
C           60.87105434650260        0.16705844744089        2.81191591243312
N           60.60267523318874        0.16208839122805        1.47192029560954
C           62.14194632619862        0.17546766691207        3.39239890673328
C           63.35179122749388        0.14661351513765        2.69746043100200
C           64.64918218476427        0.12802376427696        3.34873558297582
C           65.57107397765591        0.12202858921645        2.36348432554788
N           63.50582175476684        0.15908680677527        1.34571254425398
C           64.83503053749277        0.14032144293141        1.11359378126778
C           65.46457770566630        0.13858359391111       -0.14609162795842
C           64.81167633965174        0.14981169840095       -1.39140266263012
C           65.42907411133369        0.16252539827010       -2.67121862021227
C           64.44115007646297        0.18727938256254       -3.61591854841782
C           63.18876731227313        0.18822853871450       -2.94094590667050
C           61.91882391738234        0.21253414071168       -3.52225266781290
C           61.87417916874825        0.19797298650900       -5.01654837651882
C           61.98422025665420        1.32988314028467       -5.82834896795617
O           62.12765829611300        2.61123351161803       -5.39740535418385
C           61.77379021654097        3.04128467027524       -4.09591263166537
C           61.97973304917351        1.19235552772077       -7.22264646887949
C           61.85619431375689       -0.05319840636843       -7.80320614334658
C           61.72913758081601       -1.19173580755150       -7.01603838590466
C           61.74166380789583       -1.06246807663392       -5.63203196949042
O           61.64211365860761       -2.11585999259840       -4.77681939006627
C           61.48059759110771       -3.42835219987286       -5.27546058589483
C           60.70858120939449        0.17682930582799       -2.82595809901680
C           59.40518752723732        0.16287573486369       -3.47094093977485
C           58.48960265005687        0.14384791876064       -2.48095585847384
C           59.23352747836876        0.15104638446180       -1.23314485661718
N           60.56616170616105        0.17451420549396       -1.47908061295306
N           63.46426738509061        0.16628113845597       -1.59905348713816
C           62.18261811937349        0.13843792500055        4.88627053718570
C           62.01801307857455        1.25353585925516        5.71207533799289
O           61.83194401647184        2.53332474183129        5.29158501240793
C           62.23712080479978        2.99667874251802        4.01626546992477
C           62.00770766075712        1.09715918708347        7.10396313916141
C           62.17160486377219       -0.15120431766907        7.66886980374940
C           62.35613426158821       -1.27214423777844        6.86809743066275
C           62.35752909958514       -1.12433402906298        5.48572316663273
O           62.50750476044089       -2.16133217983311        4.61819456086731
C           62.72426997424952       -3.47192654092120        5.10056149296733
H           57.54047979167291        0.12878962661685        0.03539048958403
H           57.56377725318033        0.14458402941239        2.69485910448316
H           59.49249535045534        0.16543162927107        4.55350830404866
H           61.30756521858777        0.14406254050149        0.74276973394418
H           64.80414356582777        0.11577581169057        4.41574393717262
H           66.64616123140782        0.10556185761687        2.44613112568921
H           66.49459959303691        0.15444944261082       -2.83561255459108
H           64.55940823527141        0.20151611145029       -4.68729375991410
H           62.50386711895587        2.71297698676178       -3.34814062419902
H           61.76811954416814        4.13349779254095       -4.13087353805629
H           60.77744546730836        2.68511708458826       -3.81308141209865
H           62.07371412865538        2.08656888493196       -7.82578118648472
H           61.85258468866009       -0.14762909316625       -8.88323749856477
H           61.62885343735429       -2.16125660633437       -7.48503155199959
H           61.40959683534169       -4.07867921731049       -4.40156306989434
H           60.56337762572018       -3.52205299677929       -5.86950353261161
H           62.33969799817926       -3.73584328647800       -5.88406055928100
H           59.24519266928029        0.16161321153700       -4.53748205093367
H           57.41338448538634        0.12645429362649       -2.55533289459823
H           62.76143705812177        0.14550574870891       -0.86772340773238
H           63.24546457511320        2.65048319145540        3.76599165480360
H           62.23619208627517        4.08785731866155        4.07658679418510
H           61.53951357200720        2.68315195509262        3.23198924213389
H           61.86987055094283        1.97807315656606        7.71809629494987
H           62.16266783558547       -0.26117589830331        8.74740207486508
H           62.48779989158827       -2.24362083980035        7.32519423713597
H           61.87348523282161       -3.82786847377616        5.69437173711929
H           62.83547942764484       -4.10554348880021        4.21861223425160
H           63.63797866094016       -3.53149858585500        5.70428100529649
C          119.41697760466843        0.09700252705954       -0.15164596011639
C          118.81436318641143       -0.06873247298107       -1.39175914025548
C          119.46437045587993       -0.22046359421798       -2.64949265757628
C          118.50048013734563       -0.35729123555996       -3.60805294379647
C          117.23015865053929       -0.29577511887876       -2.96681693387687
N          117.47028181084542       -0.11701221505764       -1.63330921036961
C          115.97169098904227       -0.40298221541285       -3.56455991645018
C          114.74918745140899       -0.37266695879533       -2.89215354027852
C          113.46601488976302       -0.52121448756250       -3.55462265406530
C          112.52478828164223       -0.40393131685426       -2.59494376778606
N          114.56764510719201       -0.16587193519584       -1.55950779520242
C          113.23473629284386       -0.17865995811017       -1.35016938100064
C          112.57886011325148        0.02088468551228       -0.11980924227810
C          113.20535157950583        0.24155205458045        1.11981436258733
C          112.56073076526877        0.44409389667024        2.36970836468511
C          113.52836400465810        0.60353094225141        3.32241385541707
C          114.79475957260703        0.50324478541390        2.68215300616953
C          116.05232926028761        0.60261236550954        3.28224538552463
C          116.06504023650362        0.77862368405154        4.76684068575347
C          115.93712669041822        2.00270639252644        5.42818185936096
O          115.80524583433466        3.22009026243039        4.83815816984568
C          116.17477416129496        3.48181929907453        3.49687182888383
C          115.91006805985226        2.04017845848932        6.82860977180255
C          116.01992137714012        0.87722546007839        7.56284320129634
C          116.16444416733979       -0.35042616881698        6.92713882748625
C          116.18322787693018       -0.39477723260907        5.53795442861732
O          116.30150115012779       -1.54650597238949        4.82339725955394
C          116.45057421419678       -2.78638151552402        5.48495070550850
C          117.27653541362454        0.47730818337090        2.62186123199268
C          118.56658723042999        0.55687120337876        3.28841062149180
C          119.50215349009838        0.41953949183250        2.32682421126988
C          118.78363943953316        0.25845639778970        1.07449526765679
N          117.44623698073401        0.30060023855426        1.28974855530281
N          114.54793979034311        0.28917256676621        1.35162780961770
C          115.96228892214681       -0.63132151462615       -5.04143658334119
C          116.14289680051404        0.37433555979945       -5.99491569845975
O          116.31676350904908        1.69668268706267       -5.72758421854515
C          115.83832449240531        2.31455385102928       -4.54617509714482
C          116.18582605265591        0.04818973891237       -7.35608724723594
C          116.03731194696238       -1.26131559369735       -7.76599886356129
C          115.83597466034642       -2.27554676835467       -6.83734801275487
C          115.80268639704124       -1.95892493301409       -5.48387958062956
O          115.63519778266667       -2.88213706099365       -4.49891989327055
C          115.42707918866027       -4.24227263556659       -4.82171295921160
H          120.50217207594328        0.10005970628647       -0.14922025178441
H          120.53389201618232       -0.22254399418067       -2.78792138602183
H          118.64491451196088       -0.49277197297372       -4.66777895528456
H          116.75002143406202       -0.05455251496492       -0.92185593146143
H          113.33271110940396       -0.69593539887430       -4.61022552041144
H          111.45221881644822       -0.45900781712505       -2.69223052588168
H          111.49191736330707        0.46151987422930        2.51031572673998
H          113.38704995990086        0.77351426906059        4.37747461615449
H          115.45291932993557        3.06110022995659        2.78845966885899
H          116.18129676074973        4.56963927593177        3.39331376557833
H          117.17388484647998        3.09299173927763        3.27311858831452
H          115.80265428494981        3.00242649749404        7.31313436175222
H          115.99874644800282        0.91838156195157        8.64601831326414
H          116.25361605047510       -1.25363672636678        7.51559747558454
H          116.54119819493663       -3.54016714553130        4.70054657264617
H          117.35382977878720       -2.80368440202138        6.10689867915623
H          115.57746000204708       -3.01778202642270        6.10721090951057
H          118.70495853969049        0.69475501714554        4.34905694311698
H          120.57673434733522        0.42190561162803        2.42355753237608
H          115.26653064367993        0.15900678286987        0.64738716973322
H          114.82667793923821        1.97617385867924       -4.29893595598616
H          115.81861813240091        3.38777880801202       -4.75164792028786
H          116.50265720379610        2.12745418238621       -3.69546891677446
H          116.33558645447735        0.84732150634604       -8.07099135419599
H          116.07091880579220       -1.50357005593392       -8.82221594344127
H          115.71624303755826       -3.29646941571176       -7.17415489855842
H          116.28982543321905       -4.66716291535830       -5.34918914378234
H          115.29627562420819       -4.76329331144566       -3.87141195357828
H          114.52639323646900       -4.37639151576159       -5.43297805585238
C           68.09495287603426        0.12617756106265       -0.20132090525930
C           66.87403836033106        0.12912941369128       -0.17563244249881
C           69.44733124358241        0.12313808005098       -0.22507507730027
C           70.66848759755452        0.11853584139377       -0.24453309494990
C           81.59742093108034       -0.00526746704601       -0.29051560786462
C           80.37457593161670        0.01325293364023       -0.28440752973422
C           82.94606052265908       -0.01837762020080       -0.28737946383740
C           84.16906025407292       -0.03121600170792       -0.28985483262823
C           95.09815304306815       -0.06219754700589       -0.24834390029745
C           93.87513548528754       -0.06000704978632       -0.25707047012798
C           96.44677583518025       -0.05624393136172       -0.24136187488254
C           97.66978471296562       -0.05156571667582       -0.23384982415148
C          108.59643885721449        0.00017662450160       -0.11886027536820
C          107.37499015441243        0.00287751040948       -0.12670627184381
C          109.94847952912743        0.00358601400803       -0.11305448038748
C          111.16979986453319        0.00655274097454       -0.11680707315784
C           72.07713552100533        0.11028125940561       -0.26650679061808
C           72.72004914189854        1.30048884398906        0.11828199087774
C           72.09197621019814        2.50531549369938        0.53100054276566
C           73.07311509929137        3.41712804216440        0.80633263237954
C           74.32995945501676        2.79726977498794        0.56539634454976
N           74.06536749487636        1.51801157599418        0.15631712464304
C           75.59592402057426        3.36956694507822        0.72637947899874
C           76.81583033247919        2.72710570196664        0.51778231272200
C           78.10474134517197        3.37845753429591        0.66838299673384
C           79.04007529319327        2.44733403521822        0.39007649412200
N           76.98983572281942        1.42992205368506        0.14049571209268
C           78.32085128556096        1.23143448216755        0.06264066964400
C           78.97031613811275        0.02922680605418       -0.28515173008184
C           78.32727956156978       -1.17103607696389       -0.64570708416308
C           78.95289378025196       -2.39151929679942       -1.01047547566160
C           77.96960030086650       -3.29558598577042       -1.30761865120630
C           76.71497434811961       -2.65157449618620       -1.13104490952743
C           75.44890801782573       -3.20642579997762       -1.34104121526874
C           75.42324828928270       -4.64719617402222       -1.74270167603051
C           75.33191912084617       -5.58496500953482       -0.69472923043708
O           75.25726000903170       -5.04934379322153        0.55388577191051
C           75.12722348980729       -5.88692652183266        1.68460926714609
C           75.33021406993122       -6.95181892274936       -0.94628153285727
C           75.42639847754552       -7.39709333917438       -2.25967827297692
C           75.51216830757637       -6.49764667701036       -3.30208017006627
C           75.50731560445575       -5.11783011188709       -3.05549301922311
O           75.61157807785671       -4.35856270206715       -4.17698266751191
C           75.34086555733663       -2.96986896117868       -4.21651261184576
C           74.22918134913691       -2.56406484418249       -1.13369467220964
C           72.94205050766054       -3.20436215040222       -1.33633708044209
C           72.00481204212240       -2.27903532592947       -1.04219972801597
C           72.72194730576086       -1.07702009115976       -0.66329495626877
N           74.05429105518121       -1.27491330731803       -0.73445916267275
N           76.98197264549211       -1.36941951957518       -0.72975268707982
C           75.62357995154019        4.79588451637148        1.16020176026567
C           75.18763475625398        5.80830793108968        0.29500659617764
O           74.75362709865014        5.39974831331222       -0.92722887254740
C           74.31621157615457        6.34463256355880       -1.88337569285507
C           75.22283727609017        7.14307737168133        0.69699739439262
C           75.68686217255687        7.45953018425013        1.96479142402391
C           76.11651090289014        6.47436280492889        2.84082777469609
C           76.08644329321541        5.13973859603554        2.43770318691334
O           76.47392262760596        4.10434933800020        3.22717279231696
C           77.00437805920978        4.34452388633451        4.51516045384875
H           71.02547107380190        2.64472064945552        0.60601108655626
H           72.94298320471459        4.43130075111360        1.14700310669979
H           74.77192827186674        0.82893594710432       -0.07810355841564
H           78.24955292598727        4.40963897613737        0.94727135665121
H           80.11387498180082        2.54749748598493        0.39333427855950
H           80.01921395163708       -2.54790081639311       -1.04006866267840
H           78.09440570460271       -4.31929806995966       -1.62133227035063
H           75.06669797325461       -5.22299789371826        2.54908944839192
H           75.99572907342450       -6.54722297924871        1.79829057798848
H           74.21495011215490       -6.49363639778496        1.63209338427878
H           75.26094223578642       -7.66811551409981       -0.13871672686301
H           75.43027709676969       -8.46188900094134       -2.46365107841746
H           75.58399261249630       -6.83327780359817       -4.32896840167511
H           75.34621766510411       -2.69384600869688       -5.27374695630271
H           74.35867204648440       -2.73992919209477       -3.78981932210824
H           76.11042064432749       -2.39172385983821       -3.69353146194132
H           72.80356964498607       -4.22544311315350       -1.65407187154748
H           70.93097979083834       -2.37476169120321       -1.06834771902602
H           76.27745822443050       -0.67278108621299       -0.51168740907927
H           75.11575543804081        7.04676489549105       -2.14865384188593
H           73.44497248303327        6.90582643648832       -1.52431820554212
H           74.03334993108245        5.77211254041264       -2.76869120886616
H           74.89330160885557        7.93227772846074        0.03464608701991
H           75.71258190450095        8.49751801634915        2.27777024888465
H           76.46840853434800        6.74966931449257        3.82598162586854
H           77.90469354782942        4.96891982892973        4.46783656872288
H           77.26723668686735        3.36644093309609        4.92225332354241
H           76.26635003142707        4.82128174943065        5.17163320187627
C           85.57311321700288       -0.03338945967475       -0.29666561825304
C           86.20643803297789        1.17477481856665        0.05475388565305
C           85.56620806081457        2.38537365629560        0.42695531381887
C           86.53878073314074        3.30967456144924        0.69384430451431
C           87.80150060605230        2.69098382651286        0.48703285719383
N           87.54931582800111        1.40042847166417        0.10533067793145
C           89.06250240464455        3.27298300159102        0.65546349311263
C           90.28871060091490        2.63476220505334        0.47562683257205
C           91.57119302237294        3.29749626131870        0.63041333087758
C           92.51605311117865        2.36912499131250        0.37617128115619
N           90.47607625575051        1.33255285141708        0.12164146746892
C           91.80905969124154        1.14313305938925        0.06013871516164
C           92.47106973080764       -0.05869295888622       -0.26528597523507
C           91.84033847875710       -1.27060635116713       -0.60891650778754
C           92.47817033801330       -2.49092085812646       -0.95161428876337
C           91.50376984107768       -3.41007326652881       -1.23242247786125
C           90.24303162639607       -2.77572605047289       -1.06714026374114
C           88.98206620334447       -3.34815685030593       -1.26325977207455
C           88.97227357297220       -4.79687796000635       -1.63628319687019
C           88.90129231631985       -5.71530369474436       -0.56989300098261
O           88.83031398390355       -5.15661457602038        0.66884752269642
C           88.71973456000465       -5.97392299352060        1.81631602364808
C           88.91443646145275       -7.08667480926325       -0.79520933358808
C           89.00565536891915       -7.55594094617410       -2.10054361997501
C           89.07261005304352       -6.67574329947606       -3.16054695259778
C           89.05261229740921       -5.29159157531723       -2.94046449897673
O           89.14097538065464       -4.55292820985481       -4.07686413779595
C           88.85015551965598       -3.16927814836163       -4.14238538030145
C           87.75577674989280       -2.71543118421760       -1.06879450346960
C           86.47584069366218       -3.37447267955629       -1.25307003161310
C           85.52861655271660       -2.45024868282682       -0.98724775202215
C           86.23286440834099       -1.23034417396958       -0.64470808446316
N           87.56613668773451       -1.41625279644251       -0.70581087650747
N           90.49714888779693       -1.48363910399852       -0.68993784185814
C           89.07607984075128        4.70689755131316        1.06408157654688
C           88.64881138412245        5.70159675094551        0.17439376004148
O           88.23779654102448        5.26906479142312       -1.04741407860059
C           87.80107301374171        6.19316056729053       -2.02389978266356
C           88.66974383247546        7.04326679778191        0.55371979327637
C           89.11094437123553        7.38418070972484        1.82334666114890
C           89.53211748147081        6.41686961754828        2.72307414370283
C           89.51653401960475        5.07535872486775        2.34257184969913
O           89.89773650351080        4.05605487444743        3.15573830284057
C           90.40115613849264        4.32102458240076        4.44961276195197
H           84.49807247334202        2.52078782271088        0.48354390993267
H           86.39799346675022        4.33118102216085        1.00721846059874
H           88.26323270123952        0.70995984304894       -0.10120231976046
H           91.70571322566232        4.33388250695848        0.89477614023356
H           93.58898780463126        2.47729372495249        0.38931128965168
H           93.54601479664453       -2.63712115089291       -0.97829050518432
H           91.63904976274935       -4.43798016354865       -1.52753630909532
H           88.65785117961552       -5.29436994420627        2.66845236123413
H           89.59725603560058       -6.62118869829932        1.93542797465782
H           87.81475484316843       -6.59273041069951        1.78283380863211
H           88.86034013702543       -7.78811408143991        0.02640822601747
H           89.02080737532110       -8.62433601135325       -2.28416783713669
H           89.14090380137060       -7.03018573331295       -4.18131178758958
H           88.85006631212850       -2.91342846216324       -5.20468066703861
H           87.86533581119805       -2.94569783529354       -3.71848522851986
H           89.61188332153515       -2.57019387002353       -3.63173377421096
H           86.34818262522525       -4.40592397132781       -1.54035879072181
H           84.45582588374329       -2.55775396590154       -1.01173433081855
H           89.78535690668461       -0.79027152513775       -0.48550739439053
H           88.59649501264133        6.89833409658081       -2.29355758282762
H           86.92106010540911        6.75198864617623       -1.68298600819425
H           87.53241305157155        5.60278621925946       -2.90187323027580
H           88.34701488667949        7.81900163020621       -0.12761724836252
H           89.12544042928640        8.42750823289602        2.11881723221342
H           89.86651485716628        6.71117414553292        3.70883427663752
H           91.29881497784315        4.94972292449901        4.40962671971176
H           90.66117314898236        3.35150741653507        4.87842006909572
H           89.64764088147324        4.80450745562656        5.08311072076354
C           99.07395129130086       -0.04003606715875       -0.22814849804131
C           99.69344539956478        1.16770073792757        0.14770035789626
C           99.03935953076565        2.36830322838670        0.52886353680096
C          100.00123568573098        3.29484230615070        0.82424868309843
C          101.27151057170272        2.68758035658256        0.62791397602443
N          101.03389408434714        1.40186999898067        0.22139603996831
C          102.52518601417398        3.27323587170049        0.83180600959777
C          103.75841638134216        2.64416359951453        0.66396065173651
C          105.03463996762729        3.30793445822311        0.86442456634472
C          105.98894165505638        2.39271767391425        0.59958299279680
N          103.95854790082633        1.35502755567434        0.27550261577674
C          105.29461747835018        1.17412764912738        0.22989434973576
C          105.96681590007609       -0.00630029271126       -0.14012581112644
C          105.35175039117317       -1.20697995979751       -0.53976250109404
C          106.00423256253767       -2.40731325599879       -0.92576507083169
C          105.04119811742652       -3.32755948662975       -1.23784723184214
C          103.77250785563855       -2.71462546197280       -1.05009880330936
C          102.51890798320538       -3.29730550060175       -1.25936082542050
C          102.52647401780050       -4.73628488330005       -1.66830483048646
C          102.47559470596877       -5.68098252266682       -0.62392764705464
O          102.40559608533104       -5.15308813910940        0.62830453613434
C          102.31547023821342       -5.99889692970290        1.75673760247085
C          102.50616575730858       -7.04621163213388       -0.88220718103539
C          102.59500392685568       -7.48259951072648       -2.19904758204875
C          102.64301690685448       -6.57634932229032       -3.23787542222881
C          102.60553324360160       -5.19822750650906       -2.98443649630394
O          102.67712649699934       -4.43159976463863       -4.10332559639592
C          102.37619221555481       -3.04885970028684       -4.13256016234956
C          101.28556629202116       -2.68417966520067       -1.04631627628915
C          100.01297782617296       -3.35340777740599       -1.24404764525118
C           99.05579605428747       -2.44504532238577       -0.95992675095433
C           99.74677876104275       -1.22467029863553       -0.59261862459658
N          101.08204889626469       -1.39547721737376       -0.65555549672381
N          104.01084521218736       -1.43303454697348       -0.63032683063148
C          102.52287420660082        4.70026711946222        1.26410263274648
C          102.11184352575897        5.70653925522778        0.37971455329392
O          101.73052682240393        5.29071413425479       -0.85743724358975
C          101.32223139931082        6.22867364027356       -1.83306588308973
C          102.11848178625866        7.04243631155318        0.77932834756706
C          102.52955402255330        7.36599914740026        2.06351908583790
C          102.93453425498146        6.38697476864211        2.95801309471139
C          102.93310872056512        5.05123912660495        2.55739957413217
O          103.30088334040218        4.02129490446396        3.36350165747676
C          103.77739561060197        4.26968579037045        4.67087221636703
H           97.96956260294260        2.49557140286810        0.57144985741859
H           99.84893022771053        4.31045536847588        1.15115371814628
H          101.75540384596616        0.71975655620059        0.01353571601144
H          105.15857131150902        4.33594281156279        1.16417327674787
H          107.06088965323669        2.50508821340028        0.63632542972209
H          107.07373957058326       -2.53975038403700       -0.95695352654010
H          105.18848879041799       -4.34305303176507       -1.56813753158757
H          102.25068688969162       -5.34068338434989        2.62523650879767
H          103.20293549245521       -6.63620592122498        1.85386671428482
H          101.41907951552901       -6.62955443271073        1.71531574410103
H          102.46742515114748       -7.76785503801651       -0.07741305067291
H          102.62370528610438       -8.54595821706783       -2.40847392010758
H          102.70975650516719       -6.90518915101452       -4.26726030287011
H          102.36947822599888       -2.76632636559432       -5.18804367830630
H          101.39178728681266       -2.84313001620519       -3.69886727914871
H          103.13600088296623       -2.45746220213630       -3.61026574992008
H           99.89671106655895       -4.38013935721351       -1.55229576444015
H           97.98426015339879       -2.56370870520234       -0.98706466589242
H          103.29086098929290       -0.75599750970200       -0.40141836406024
H          102.12508281378410        6.93741078417410       -2.06922416603381
H          100.43249446617429        6.78278916456248       -1.51018398566836
H          101.07950404427700        5.65088672941398       -2.72683326117644
H          101.80781228066698        7.82699913217661        0.10250113959669
H          102.53301912318257        8.40484255237585        2.37469589319606
H          103.24571470805279        6.66788757336090        3.95521191379735
H          104.67233540310744        4.90333700088787        4.65773531510800
H          104.03397779277378        3.29527439211645        5.09057389637187
H          103.00900354756685        4.74008650552120        5.29631027300839
