248
 energy: -450.757259119196 gnorm: 0.000620220899 xtb: 6.5.1 (b24c23e)
Co          44.77270360733942       -0.17842875928639       -0.12580551985630
C           41.38862171051223       -0.19774085220021       -0.18589632077539
C           42.01960036396989        0.49513139348578        0.82411461331293
C           41.32858078789592        1.20593598233277        1.85657067513857
C           42.26815334858883        1.89107936288331        2.55069771943087
C           43.52717914070077        1.59838500978777        1.93649103834834
N           43.37504079213436        0.70469792338251        0.91352967695632
C           44.71407954625342        2.25469819854669        2.26000749421835
C           44.69090594388264        3.26487673115846        3.24553251037890
C           44.67256964360826        4.13291317460927        4.09312817810268
C           44.65114661911539        5.14423606264904        5.08094097852153
C           45.80388790607056        5.87145847154219        5.39950444627999
C           45.73003214654282        6.85146116372839        6.37325781636066
N           44.60961719740255        7.14153037228065        7.02979858705259
C           43.50953904033933        6.45438685891891        6.73284629034098
C           43.47679413390358        5.45573401826934        5.77590912837490
C           45.92064024411005        1.95086689584442        1.63254624846096
C           47.14835027107427        2.62692750252626        1.91096263309325
C           48.12065150611205        1.95487855326916        1.24738550110264
N           46.12576943102605        0.90182903578739        0.77416416610566
C           47.47995766853727        0.87122703107007        0.57198654919587
C           48.17565756801964       -0.15403567682447       -0.07051654813637
C           47.51863614520131       -1.19911889138317       -0.72220316006259
C           48.19881421792675       -2.27554459397208       -1.37009686310578
C           47.25658897028399       -2.98065498127771       -2.04259253844788
C           46.00805543136673       -2.32878786412051       -1.80125206686012
N           46.16970296773103       -1.26657988855430       -0.94909352272746
C           44.82640330146043       -2.66076350874313       -2.46059658005932
C           44.84699691142198       -3.68328948068397       -3.43345785054680
C           44.86015519462655       -4.55776012090906       -4.27436507974841
C           44.87354372622633       -5.57468789141495       -5.25663810801296
C           46.04647077950294       -6.27462355518191       -5.56228641970050
C           46.00534423611170       -7.25922925373527       -6.53339862771812
N           44.89830455848703       -7.57897975292274       -7.19877397897232
C           43.77900408299405       -6.91834065865626       -6.91373672495124
C           43.71337386833527       -5.91749171010415       -5.96080830954445
C           43.62250860420095       -2.00984978347185       -2.19238193474534
C           42.39270531271256       -2.31182606290041       -2.85884755748387
C           41.42260264185996       -1.61702436730678       -2.21818067766526
C           42.06553276049787       -0.89427381632942       -1.16324289250925
N           43.42312593769589       -1.10727309314920       -1.18587472112502
H           40.30522764375384       -0.19781028959125       -0.21086108544762
H           40.26079840056649        1.18080839865606        2.00518446898378
H           42.13913162117097        2.55182702209178        3.39297071193436
H           46.73739907131105        5.66762493398002        4.88904065542434
H           46.60883190057926        7.43134044260330        6.64030834261154
H           42.61323618383980        6.71673547274518        7.28754023631248
H           42.55859022664839        4.92081277612316        5.56536262609462
H           47.23863805235428        3.49493074241074        2.54402462462262
H           49.18026628895484        2.15161326834592        1.21990465010525
H           49.26198718227383       -2.44648952171426       -1.31828397752052
H           47.38037965303565       -3.85456611454613       -2.66172654109911
H           46.97024501894567       -6.04607643697493       -5.04465381105411
H           46.90054956858505       -7.81786927205429       -6.79109227832666
H           42.89434630307048       -7.20449323827148       -7.47533301844759
H           42.78047677735947       -5.40455121893249       -5.76034253151007
H           42.30205706131095       -2.98278804935466       -3.69804405734165
H           40.36293994445300       -1.59327047215114       -2.41673808121494
Co          92.52607547569782       -0.19258999719567       -0.18250463676504
C           95.90823194144285       -0.35736661941872       -0.26367120771789
C           95.19591049427774       -1.53455037636278       -0.32943105220501
C           95.80277320114924       -2.82653285561573       -0.43581296349019
C           94.79927144852941       -3.70844499259738       -0.65682390571001
C           93.58524732719091       -2.95117488211168       -0.68194463475952
N           93.82843791745691       -1.62939512437347       -0.43307472676935
C           92.34848032386090       -3.48999138196398       -1.03381586814865
C           92.27593714817341       -4.85125249518484       -1.40047277607926
C           92.21560841386426       -6.02207185176369       -1.71289894093687
C           92.14694604708291       -7.38714268286927       -2.07498180792323
C           90.93494471234318       -7.97975811375968       -2.44780310236865
C           90.92217242419881       -9.31983259190740       -2.79163632652801
N           92.01242582373084      -10.08260900215335       -2.78652829226021
C           93.16856520212036       -9.52657463756024       -2.43339011196488
C           93.28902410702419       -8.19643068649745       -2.07242435001228
C           91.18246234034814       -2.72730675206045       -1.03093280188972
C           89.90120695292086       -3.24628922980543       -1.39240591512861
C           88.99541666601100       -2.28122465382190       -1.10050153637558
N           91.07444293638208       -1.44247500896347       -0.56421518394819
C           89.73045910268262       -1.17943824263116       -0.56507486797651
C           89.12726989480574       -0.05030905807251       -0.00858863894057
C           89.87240595427470        1.02491464075024        0.47564455345696
C           89.28377496839967        2.19420441147019        1.04777273817991
C           90.28977241555867        3.08324787526881        1.23272592299796
C           91.48560841190717        2.44898489294223        0.77458474375747
N           91.22934160751549        1.16902070937694        0.35497785899121
C           92.71048501303240        3.10442689996060        0.66873311697538
C           92.78781055064806        4.47132495682502        1.01256034014468
C           92.85641167427555        5.64547213843627        1.31014353072001
C           92.93790111552619        7.01315288796040        1.65930877544047
C           91.82623483236736        7.70268251941956        2.15719717141250
C           91.95938333921956        9.03992360682370        2.48608954719205
N           93.09994986451126        9.71195623005700        2.35193915300740
C           94.16118606636135        9.06360965516565        1.87870520998866
C           94.13377463890217        7.72733563440362        1.52133257878903
C           93.86552015128133        2.44955688707968        0.24316638342012
C           95.14020863440108        3.08971040444722        0.12799605814397
C           96.04367151757461        2.11346936459147       -0.12638208487724
C           95.31477056298202        0.88252236867697       -0.16949041048490
N           93.97164933554058        1.10582572590863        0.01667714731800
H           96.99027262394435       -0.40869028319440       -0.29404021335942
H           96.86288274546547       -3.01051948321983       -0.36381095878031
H           94.85629325460337       -4.77495950309113       -0.80496108790210
H           90.02306458866109       -7.39519333975436       -2.46554164355688
H           89.99582783759504       -9.80554074573176       -3.08466338680094
H           94.03815291650392      -10.17746903721477       -2.44016916830781
H           94.25060085428393       -7.78420492558472       -1.79131119795672
H           89.73294510679240       -4.22910402313999       -1.80241380835372
H           87.92425477310584       -2.30170757403583       -1.22032969536139
H           88.23274885740264        2.30825452477020        1.25898710280838
H           90.24226605778125        4.08458615757731        1.62945029106583
H           90.87820266244637        7.19367050128202        2.28248232398285
H           91.11350141511707        9.59934426044436        2.87519814596411
H           95.07547137437153        9.64206001072778        1.78194395857305
H           95.02196736721504        7.23811392355613        1.14007888306056
H           95.30395777542317        4.14895409496801        0.24558536634613
H           97.10992754617833        2.19645331227229       -0.26454388266160
C           53.37746682102857       -0.12480254285604       -0.06652309645003
C           52.14938145622950       -0.11693469269192       -0.05525740334673
C           50.80410295642549       -0.12006531079356       -0.05224245185309
C           49.58083010514912       -0.13570367881125       -0.05907755774553
C           54.72162524315081       -0.15870414937240       -0.09898862244904
C           55.94351893934911       -0.20893985732936       -0.14489409064859
C           69.27358202214275        0.23192923641045        0.22662095682869
C           68.04365791142368        0.22968575876806        0.21715757466852
C           66.70380304093874        0.17264568128850        0.16809807360554
C           65.48481048374394        0.07320090649865        0.09211388553826
C           70.61403861730061        0.17569493227581        0.19575655809191
C           71.83378553540763        0.07660186050432        0.13175376053712
C           85.15653857866320        0.04771790436744        0.12623037376492
C           83.92863657037216        0.03308123984554        0.13667861245418
C           82.58445065565451       -0.01687014063309        0.11102474334219
C           81.36416570556753       -0.09473585153835        0.06552990296548
C           86.50188086677240        0.03461945931628        0.09969027740861
C           87.72386889209663        0.00404340071463        0.05487209492592
Co          60.73314956381395       -0.44252048083653       -0.30996042040653
C           57.34277472892105       -0.30118375654917       -0.21709175061633
C           58.02908671883505        0.48629509818603       -1.14452959570226
C           57.37414402531122        1.33087965976573       -2.09266010972862
C           58.31617707744919        1.70342378327687       -2.99456257356773
C           59.54571316448103        1.11676325698542       -2.56632314442489
N           59.36798332411336        0.39400647483274       -1.41895081578913
C           60.75577516941843        1.26523408271599       -3.24755365561167
C           60.75430043988968        1.90270578069604       -4.50614362601353
C           60.74757208606302        2.44061037199542       -5.59383765341030
C           60.74167536251696        3.07316495626415       -6.85828006825633
C           61.92055688405872        3.23121254535400       -7.59611976078620
C           61.86055203586648        3.85899372429787       -8.82763934169183
N           60.72996770433421        4.32528778274047       -9.35162274431473
C           59.60504231824547        4.17898735256205       -8.65636467710065
C           59.55667193999141        3.56589990586161       -7.41696453969377
C           61.97083373582397        0.88289552205886       -2.68300955440277
C           63.24029229495795        1.21050401839614       -3.25150003533645
C           64.17305247327756        0.90850648253890       -2.31473643385680
N           62.12496091998688        0.32445422564150       -1.43968571520569
C           63.46904853452482        0.36102626179151       -1.19896994456231
C           64.09944992859694       -0.09228035645076       -0.03427321648020
C           63.41015191595372       -0.82140463138581        0.94016535340538
C           64.05591651876172       -1.45809142749006        2.04415638332273
C           63.13401284194919       -2.27356100701090        2.61380342830908
C           61.92355407659477       -2.09943392946308        1.87606407942711
N           62.09443611155704       -1.18948663874187        0.86729724823099
C           60.74033475179323       -2.78422344206945        2.15333473404894
C           60.75452486598473       -3.79818102988160        3.13441521829589
C           60.76964675098381       -4.66933926767835        3.97897906908865
C           60.78407660964901       -5.67596352047539        4.97171299312728
C           59.62249859623614       -6.38167654687127        5.30607066337568
C           59.68871468458572       -7.35284308718056        6.28932598908769
N           60.80970872939999       -7.65343604154113        6.93990040179960
C           61.91828010389645       -6.98732595391299        6.62754578205488
C           61.95916259182532       -5.99891973307661        5.66021117707574
C           59.52778849997066       -2.43554461986887        1.55868985487433
C           58.26953378085099       -2.97973663816572        1.96131676996853
C           57.31348231297539       -2.23256750808046        1.35567494107733
C           57.99604241743267       -1.26359663493849        0.55902423759767
N           59.35132973133987       -1.41155973299539        0.66521860426922
H           56.32360235437302        1.57207132099320       -2.07466345688325
H           58.20599632222387        2.32640127345386       -3.86752505587273
H           62.86296756779110        2.86622911594067       -7.20607831973063
H           62.75932086380740        3.99514935701875       -9.42213170572712
H           58.70138987008473        4.57137132470963       -9.11369834544164
H           58.61868549667290        3.46777669492164       -6.88402385298272
H           63.38012624527345        1.64515989180468       -4.22811437767485
H           65.24306007163077        1.02995819126268       -2.36437168298659
H           65.08842880608806       -1.31149713775429        2.31725253514566
H           63.24574483203381       -2.93026310408541        3.46149339253634
H           58.68821671435499       -6.16760228635852        4.80134557958045
H           58.80308743650491       -7.91560327963983        6.56978071137359
H           62.81449876319403       -7.25812318489292        7.17818960949649
H           62.88374346479750       -5.48026798174122        5.43740731872079
H           58.14952045235890       -3.80556147376274        2.64382979077579
H           56.24150160628179       -2.32229377197109        1.42586730471715
Co          76.58750358607715       -0.44933155450667       -0.20854951460582
C           73.21978600159666       -0.09389507247714        0.01870983177625
C           73.90040176888976        0.55391909008188       -1.01757309369065
C           73.24154287036862        1.33171594331189       -2.01861198202222
C           74.16613033704139        1.59444505305466       -2.97529700335969
C           75.39186709663637        1.01301153410577       -2.52874936196701
N           75.22347355436330        0.38763425439265       -1.32224505787644
C           76.59483592179892        1.11322599700166       -3.22729861374253
C           76.58959162928632        1.69250166920419       -4.51378429273403
C           76.58253125372619        2.18726487561712       -5.62176801444321
C           76.57501139127164        2.77482410568088       -6.90771648853447
C           77.75325427827835        2.90976041087545       -7.65109505394450
C           77.69188946963261        3.49721709032025       -8.90229826327844
N           76.56053201992691        3.94526837180130       -9.44038590200847
C           75.43619140106217        3.82065361265950       -8.74000158294874
C           75.38918950391803        3.24815711212781       -7.48129308699890
C           77.81445252766467        0.75675658502840       -2.65145641102005
C           79.07947456237241        1.06616837573404       -3.23883752160533
C           80.02005561260026        0.77736185015364       -2.30573734444777
N           77.97568324863316        0.22929322688605       -1.39760667988149
C           79.32489498900019        0.25249460859246       -1.17384098299302
C           79.96870634762568       -0.22533531516022       -0.02850191597141
C           79.28713437944097       -0.95130687229410        0.95112064741261
C           79.94679826329650       -1.64754633216387        2.00992827817500
C           79.01009311096034       -2.43001412984093        2.60125481812273
C           77.77778521375727       -2.17076766496099        1.92766491587800
N           77.95177845413683       -1.25473900376117        0.92696040247314
C           76.56257986977052       -2.75830347086557        2.28538763870397
C           76.55983321615111       -3.77939473118910        3.25895622172987
C           76.55844142117158       -4.66339087517418        4.09026520152933
C           76.55265687139016       -5.68751868367120        5.06499048427050
C           75.36049177645739       -6.30711647696252        5.45752738228274
C           75.40756790851253       -7.30207861299229        6.41777829723073
N           76.53780684732263       -7.70390015660957        6.99338205743529
C           77.67530824172455       -7.11988320551759        6.62563232577141
C           77.73716043621081       -6.11662293301096        5.67480750207228
C           75.34620602217285       -2.29642283014562        1.78644560798614
C           74.07869590097572       -2.70047751473922        2.30784229741410
C           73.15154439815096       -1.88735582462138        1.74406326399766
C           73.85504725807245       -1.02521634569216        0.84837041393673
N           75.19544699491463       -1.28879578724115        0.86873999500301
H           72.19992436451680        1.60824428091559       -1.99244599760214
H           74.04823376276184        2.14441779953006       -3.89504321153410
H           78.69632660805486        2.55895179700592       -7.24982588198333
H           78.59017267403382        3.61505243372030       -9.50139757728540
H           74.53187559550196        4.19728490416948       -9.20915544756046
H           74.45170783828020        3.16695925324283       -6.94459843221177
H           79.21202516185122        1.47913801065812       -4.22579013961444
H           81.09028280198208        0.88971782473980       -2.36934787120547
H           80.99647599795755       -1.56014607543212        2.23942380152393
H           79.12432014715939       -3.11143752467975        3.42883986039243
H           74.41791066580619       -6.00962275344284        5.01420374975838
H           74.49825927477811       -7.80017681189858        6.74149309227740
H           78.57824929566316       -7.47220807799233        7.11581828936957
H           78.68521956385320       -5.66740887944088        5.40489389200378
H           73.93693415292948       -3.48426171859874        3.03435673508711
H           72.08469407184978       -1.87207530796402        1.89805723805669
