227
 energy: -401.818692779512 gnorm: 0.000396326648 xtb: 6.5.1 (b24c23e)
Co          28.65910396677910       -0.06528577186029        0.07981605122419
C           25.29683873557196       -0.23091102245166        0.30379487039041
C           25.98742967617200        0.45315699171502        1.28096296203815
C           25.35952047570529        1.10216414260877        2.39183604381563
C           26.31482616124730        1.84588177847118        2.99713098288737
C           27.52857213810771        1.64145522981241        2.26315097216231
N           27.32697650365001        0.74877399476303        1.24101996189587
C           28.69439872673381        2.36406660391221        2.46904684308929
C           29.85265782429635        2.10601287031476        1.75531091943144
C           31.09316651596453        2.78610314163695        1.97623666404571
C           32.04088246979408        2.10567663072933        1.28864161252682
N           30.03239329074438        1.05153734506961        0.88776773831298
C           31.37624190790055        1.01859318785611        0.64156761928445
C           32.04780947565517        0.00883506640813       -0.05075125715509
C           31.36407314283963       -0.99836161236466       -0.73320576061175
C           32.01769045602652       -2.03765028904738       -1.46503254856263
C           31.05165914315845       -2.69835170473449       -2.14674948014499
C           29.81018000644824       -2.06115591055444       -1.82785681235444
C           28.60272966819027       -2.36706697425217       -2.43437475389419
C           28.57886557847095       -3.38030798712839       -3.52341645668381
C           29.20111768149103       -3.11898120091489       -4.75177824254447
O           29.79369847431817       -1.90215007997851       -4.87111082991253
C           30.46601985346497       -1.54590528091314       -6.06194945362785
C           29.17884212940512       -4.07148366818266       -5.77022206782908
C           28.54035139470397       -5.28332361874382       -5.55493070928694
C           27.92147001495364       -5.56607273892423       -4.34670648710187
C           27.93895331519093       -4.61240200181554       -3.32960299954161
O           27.37083279139621       -4.80175989871770       -2.10964464144706
C           26.69104260700913       -6.00449155768200       -1.81310509264917
C           27.41310780568195       -1.77760370788291       -2.03466313347162
C           26.13796275131131       -2.06243298260371       -2.62395308518694
C           25.20363839328178       -1.47791191205144       -1.83839922946521
C           25.90986171618790       -0.82100717453035       -0.78032008193150
N           27.26528047565932       -0.95937213578829       -0.94285585322154
N           30.00991841344751       -1.05066477134326       -0.91554181409994
C           28.70826932878315        3.43751988173838        3.50023231106505
C           28.66774059287262        3.11370906330138        4.86241637135920
O           28.61893255698659        1.78717020347066        5.15561688817764
C           28.59371473690631        1.35128653587939        6.49965710699695
C           28.68689093044448        4.12062656219255        5.82695970496024
C           28.74251678941275        5.44649605325557        5.42461583837543
C           28.78170649242617        5.79072651438039        4.08192717768704
C           28.76729583576443        4.78372716140424        3.11734172412701
O           28.79969102089870        5.01844359730408        1.77901141181599
C           28.84884723371640        6.34153137714597        1.28492894541318
H           24.21767624517506       -0.29215288992805        0.38244583436995
H           24.31561780650874        1.00463217145238        2.64532125384136
H           26.21914058529294        2.48772086747974        3.85770799962726
H           31.21308741576668        3.65852621982885        2.59755632631404
H           33.09910594568441        2.30171329444512        1.22241874976423
H           33.08135389647529       -2.21454553785710       -1.45733220797223
H           31.15661614115861       -3.53756748004179       -2.81507630783802
H           29.78283061631268       -1.52847660763592       -6.91979887233504
H           30.86157807554778       -0.54177199658545       -5.89841851402739
H           31.29669884536718       -2.22996708859093       -6.27410580246512
H           29.65211951403948       -3.87747823798544       -6.72343054070314
H           28.52516914208896       -6.02455134384040       -6.34643517475389
H           27.43377190918876       -6.52121669564788       -4.20496097978831
H           26.32173008165009       -5.90008991692958       -0.79116792360939
H           25.84132440831399       -6.16283212981294       -2.48832631087404
H           27.36272845633207       -6.86987516533451       -1.86655495717396
H           25.99289746029555       -2.65221406191285       -3.51462893745254
H           24.13016420728948       -1.48357463946865       -1.94410001707557
H           28.56211124479239        0.26072247613876        6.46465087800922
H           27.70467375606879        1.72029045966466        7.02550959140883
H           29.49295347784186        1.66829651708938        7.04165549317005
H           28.65910380422835        3.88133176713479        6.88156096799725
H           28.75598576123241        6.22954026321653        6.17480913735078
H           28.82409737803791        6.83343780547662        3.79702047323857
H           29.75524446983454        6.86160270034885        1.61797497773402
H           28.86262397377295        6.25886344069921        0.19660009908352
H           27.96728296084632        6.91767134791970        1.59114014949680
Co          60.58062618154849       -0.10938832400131        0.04397281457571
C           63.94092142539091       -0.35744627960336        0.16752360730775
C           63.24936368002697       -1.21228427906148       -0.66402906046176
C           63.87605847882521       -2.20380342932679       -1.48467991961998
C           62.92014545435609       -2.67802407128193       -2.31768052416321
C           61.70740905270087       -1.98525863724728       -1.99654941665060
N           61.91029535932402       -1.12228019000109       -0.95037644692787
C           60.54080306176154       -2.06649151089089       -2.74474152356747
C           59.38478768239806       -1.39943213137309       -2.37526279321738
C           58.14400723648716       -1.49827531340406       -3.08314813791161
C           57.19837740258662       -0.92970749904453       -2.29764388087694
N           59.20636897507176       -0.71968262846338       -1.19032649777586
C           57.86475376210568       -0.47792030027279       -1.11711922705648
C           57.19324635984147        0.02463276355672        0.00182542469190
C           57.88024685243514        0.52230984397856        1.11235893384661
C           57.22930614496856        1.06644433880121        2.26255084769708
C           58.19526179522970        1.64216598558791        3.01798789649004
C           59.43353375714444        1.44392775110164        2.32783241353244
C           60.63914640375473        2.00479209997473        2.71681008740759
C           60.66131993429718        2.92670754497072        3.88373718370875
C           60.02424845957252        4.17344286927581        3.81424952676810
O           59.42126232353100        4.46773324794490        2.63305623893759
C           58.73609333263533        5.69211761672231        2.46297349251430
C           60.04416074646872        5.03724629883570        4.90888437562594
C           60.69459893452096        4.64924235919428        6.07031677102298
C           61.32779709245859        3.41919251944186        6.16408555141567
C           61.31306944741100        2.55683769328965        5.06845331859430
O           61.89444457900976        1.32853838979892        5.06870085721663
C           62.58529217805149        0.86170025878924        6.20965015862710
C           61.82820415557460        1.70837990072245        2.06619013270700
C           63.10317964307063        2.24888820878858        2.43578388750523
C           64.03708266974697        1.56418953208794        1.73482058690559
C           63.32998392567588        0.62065216085276        0.92274101607193
N           61.97505514268862        0.75765390976566        1.08827590067707
N           59.23205271787644        0.70579873825653        1.18404116005755
C           60.52483835067396       -2.90972315219419       -3.97076837850846
C           60.58384566418011       -4.30608243588219       -3.87250926121633
O           60.65087487586823       -4.81008574578517       -2.61187682620248
C           60.70987750067138       -6.20629673264769       -2.40066018338166
C           60.56186118074005       -5.09505826163072       -5.02205446957900
C           60.48525912720469       -4.48442057272270       -6.26464365399975
C           60.42742687840332       -3.10433347020642       -6.38639955619267
C           60.44410898604861       -2.31518007548879       -5.23686577125826
O           60.39522115265945       -0.95699758461459       -5.25219466771114
C           60.31081818586325       -0.25703339138444       -6.47702122975672
H           65.02012776790043       -0.44572662041961        0.21425044044780
H           64.91950851376397       -2.47150029454621       -1.42967918530038
H           63.01581278419614       -3.42211138403681       -3.09143679085191
H           58.02154794699158       -1.96459800639673       -4.04695039859955
H           56.14061680089752       -0.82753825725917       -2.48017935923336
H           56.16738680623314        1.01949223198191        2.44367477721548
H           58.09204778135136        2.16365411550236        3.95572709311940
H           59.41177526089307        6.54930972008990        2.57057761355812
H           58.33520726439942        5.67692637897101        1.44782045227699
H           57.90832481442043        5.79126711968559        3.17560203662461
H           59.55975854628400        6.00341532991648        4.86348408069071
H           60.70787932802536        5.32040202458034        6.92205200989635
H           61.82454716899262        3.14093598857024        7.08387780991349
H           62.96286667968601       -0.12936043209835        5.95111548453282
H           63.43002784386423        1.51392476423988        6.46260376846129
H           61.91915799362541        0.77833528882687        7.07691682872395
H           63.24891460996850        3.03734188085574        3.15634995809074
H           65.11045655508522        1.66895734177778        1.75485146602987
H           60.75995553410366       -6.34784583676381       -1.31946802338273
H           61.60250701537983       -6.64522054601502       -2.86279258424197
H           59.81605177521557       -6.70949233323857       -2.78879317950249
H           60.60307934217451       -6.17404490912129       -4.95681254994388
H           60.46971371580278       -5.09818271789636       -7.15858052756269
H           60.36911647489990       -2.65498709755813       -7.36866852843062
H           59.39888750931362       -0.51885176062363       -7.02726764757359
H           60.28192664932850        0.80325655992447       -6.21929051174258
H           61.18465653152420       -0.44984582272669       -7.11104486081626
C           37.24943058453886        0.04893337999788       -0.07617917454010
C           36.02134049030023        0.03788713649393       -0.07946371687185
C           34.67603810217289        0.02878685919358       -0.07719323277132
C           33.45266326410736        0.01764731110692       -0.07047729344569
C           38.59445912021398        0.05733588470793       -0.07289163111872
C           39.81826506812042        0.06156668807529       -0.06573706429507
C           53.22449432968538        0.05915875022714       -0.01851044771003
C           51.99498282389762        0.05880438109998       -0.03005486402477
C           50.65255373625808        0.05733275407130       -0.04019023872823
C           49.42756977846081        0.05241626830105       -0.04736914657455
C           54.56708508673905        0.05359391532781       -0.01003015798386
C           55.79185884801532        0.04492946134809       -0.00113838244185
Co          44.62431235475614        0.00934791759828       -0.05457677128860
C           41.22207467913528        0.06089893828705       -0.06019131853947
C           41.89706003023659       -0.17753858207594        1.13985813181830
C           41.23555571405413       -0.44528142683123        2.37798308724119
C           42.19280823495207       -0.44174343250633        3.33724896725313
C           43.43328396181479       -0.16918958780299        2.67873043373968
N           43.24523828118652       -0.05454705779458        1.32149094096181
C           44.62061135264774        0.08660387801191        3.34381662227979
C           45.80665711540318        0.33508369914995        2.67604682782705
C           47.04445106687605        0.62853178237133        3.33101639801636
C           48.00249300832603        0.62324663953560        2.37288499022151
N           45.99655307225862        0.20636074183243        1.31913070151665
C           47.34459180798098        0.32581832919774        1.13941175168864
C           48.02678984697727        0.04953627825325       -0.04965410701276
C           47.34746827248279       -0.23724271756305       -1.23783837772173
C           48.00628439756895       -0.56870931622128       -2.46148868487633
C           47.05060230013407       -0.59068528310692       -3.42186831195048
C           45.81399180661558       -0.26367378526241       -2.78057523201735
C           44.63062845863070       -0.01328388793025       -3.45721258493673
C           44.63400463033459       -0.03800258661691       -4.94434995426428
C           43.93590202006176       -1.03520712630714       -5.63933784681035
O           43.28829771255536       -1.95089120788196       -4.87299031893462
C           42.54336817555065       -2.99125648533232       -5.47341864237347
C           43.94417965201558       -1.05915148245895       -7.03358960469863
C           44.64429329069662       -0.08342405425641       -7.72677217217970
C           45.33898059347933        0.91485466318784       -7.06078940800098
C           45.33669442750858        0.93655342850316       -5.66651468761874
O           45.97748746553967        1.87753820595063       -4.92564779038799
C           46.72154477233889        2.90196471021538       -5.55381613996460
C           43.44453424603323        0.25978019143192       -2.79318318603282
C           42.20958278836113        0.55816032853450       -3.45173329271221
C           41.25065770059104        0.57263375600191       -2.49497395336213
C           41.90564260154574        0.29276834790852       -1.25610569153954
N           43.25444911551241        0.16205405530627       -1.43443835378073
N           46.00176195857586       -0.10348224944889       -1.42713832589748
C           44.62194186230738        0.09420840519445        4.83440978619028
C           45.00152017804325       -1.05182238419813        5.54267372963551
O           45.34779949489184       -2.12601467608955        4.78686213313139
C           45.72889259752674       -3.34031124310570        5.40189570430264
C           45.00372482403129       -1.04539979074106        6.93742789638388
C           44.62981797037600        0.10738771745356        7.61157114618582
C           44.25185287985943        1.25365732086088        6.92856883721740
C           44.24611473049067        1.24674830123461        5.53381830145566
O           43.89675575201603        2.31401347824226        4.76960897326120
C           43.51308197100984        3.53217630954906        5.37508758915034
H           40.17376917450860       -0.60086305623570        2.48280245521755
H           42.08318225444154       -0.59495588921678        4.39880918323374
H           47.15195880715180        0.79943890285432        4.39007578230063
H           49.06316354934389        0.78717006342456        2.47623517728970
H           49.06519668706570       -0.74807983838389       -2.55711489940052
H           47.16136588103252       -0.79542289991051       -4.47431450314400
H           41.73285467357945       -2.59609774021123       -6.09764923040322
H           42.11456838537573       -3.56955593862660       -4.65296842468382
H           43.18235864260472       -3.64476928947107       -6.07952882912031
H           43.41313997954705       -1.82742378127785       -7.57939454714779
H           44.64862026274235       -0.10142315818003       -8.81108629620489
H           45.87436117846233        1.66482488301376       -7.62741169230781
H           47.13782553257236        3.51103796331945       -4.74933283683492
H           46.08459760918986        3.52986731281325       -6.18848334508525
H           47.54117808517684        2.49137507414817       -6.15578434373290
H           42.10193494783957        0.71788874298405       -4.51222368213250
H           40.19158040518416        0.74450750884967       -2.60161053669445
H           44.91986590513148       -3.74816960714707        6.01996097003676
H           45.94589248928721       -4.03686014010796        4.59001683963374
H           46.62734986947163       -3.21399504783454        6.01802126183748
H           45.29316779263217       -1.92436421062894        7.49764954077659
H           44.63274602667425        0.11250500490761        8.69608621077463
H           43.96587692047321        2.13800326637419        7.48207380580850
H           44.32268420461609        3.94908220808505        5.98637982757542
H           42.61752394655042        3.40762341042109        5.99578581341987
H           43.29007133997057        4.22043719421345        4.55778971111783
