264
 energy: -519.900457224039 gnorm: 0.000505076626 xtb: 6.5.1 (b24c23e)
C           49.80703511170681        0.00716410847659       -0.02356793030684
C           50.41756567218063       -1.23998583515642       -0.01200335117327
C           49.76705761073866       -2.50599210134707        0.01277106126314
C           50.73030369642013       -3.47454337603675        0.01435098022127
C           52.00104818881600       -2.83104548267578       -0.01831922172851
N           51.76144456145116       -1.48673563738503       -0.02565661305457
C           53.26563170675935       -3.42962380450196       -0.01156431509297
C           53.29988492394574       -4.91224449976189       -0.01875766306462
C           52.74976812465991       -5.62464116290216       -1.08737024266311
C           52.78556342215308       -7.00927984705116       -1.10243980624234
C           53.37039574713569       -7.67091136018483       -0.03497610052752
S           53.42652490345979       -9.42305270387737       -0.05153630869690
O           53.34577234298320       -9.92086423423199       -1.39277986669351
O           52.00777099687947       -9.70969427878716        0.68581263729581
O           54.47458313988162       -9.90882699225176        0.79702471760051
C           53.92398671288532       -6.99263506760537        1.03878064443080
C           53.88724522897458       -5.60809147845178        1.04097101348351
C           54.48222041418070       -2.74214341305300       -0.00390968215203
C           55.78080168041906       -3.39044914222907       -0.05582520913929
C           56.70031457284063       -2.40380351143855       -0.04818302361976
N           54.63479751299739       -1.39044734928366        0.01772617034366
C           55.96322508419085       -1.15526809737879       -0.00137922976383
C           56.59625932041516        0.10219014102714       -0.00067410081732
C           55.96135005910745        1.35697669200178       -0.00483659150491
C           56.60445988005955        2.62253833095290        0.04352145553548
C           55.63690291006797        3.58849209824688        0.05078199292545
C           54.37115049229273        2.94104545263021       -0.00292623798937
N           54.61904827497391        1.59471768084931       -0.03044783975508
C           53.10673051683173        3.54026555819355        0.00852859741251
C           53.07137493968029        5.02171197331734        0.04320134024635
C           53.64017091933662        5.76910316825537       -0.99135831580762
C           53.60963392866148        7.15351674129173       -0.95817885647734
C           53.01088410423576        7.78006744141579        0.12275072707886
S           52.96961032217754        9.53222702036250        0.16960101561048
O           53.06556310987264       10.07279402524606       -1.15360299297733
O           54.38221997214886        9.78124103119226        0.93191292671493
O           51.92075766224517        9.99998524407807        1.02762106740006
C           52.43535726600845        7.06688270300856        1.16176611639030
C           52.46666172248401        5.68303997393056        1.11558566135460
C           51.89015704890346        2.84983201086762       -0.00404140225445
C           50.58492116475144        3.49126357471206       -0.05626092766424
C           49.67260485594117        2.49933078599872       -0.06690719131293
C           50.41890068292837        1.25350764229031       -0.02953980450015
N           51.75116828009961        1.50328954332515       -0.00055798270438
H           48.72183163926497       -0.00298337072764       -0.02867996443550
H           48.69782113521315       -2.64341265578163        0.03277683540747
H           50.58042203686261       -4.54154757992113        0.04485836045797
H           52.48587658048680       -0.77655158746004       -0.03414124516474
H           52.30975828322472       -5.08771033612761       -1.91967373481475
H           52.37381456224034       -7.57095097039522       -1.93151953105434
H           51.88752941283989      -10.65742763124489        0.82190817679173
H           54.37798012369434       -7.54184714561654        1.85401318945084
H           54.30535104555599       -5.05821532039608        1.87597380111586
H           55.94538705335045       -4.45439438125557       -0.10800910544334
H           57.77454409860840       -2.48757104760203       -0.08425939066642
H           57.67225880279697        2.76637202355963        0.08045786223701
H           55.78445442150261        4.65487642746564        0.10154382267647
H           53.89688252884039        0.88205723899844       -0.04915681091105
H           54.09151511608972        5.26007474906580       -1.83504530582683
H           54.03744781290676        7.74225744035903       -1.75987725522010
H           54.45983517662539       10.70634375905337        1.19533233150142
H           51.96978375092491        7.58879396044746        1.98836592649050
H           52.03279704790963        5.10633322796836        1.92405290358757
H           50.41549005931633        4.55517861729022       -0.09562494675815
H           48.59706113971522        2.57122743073445       -0.10375332416254
C           89.23570265586619        0.03565859440836        0.01222650949344
C           88.64492314361870        1.28468461721545        0.15031332562631
C           89.31422446897872        2.52924306106972        0.32290855142880
C           88.36631554519099        3.50884493416634        0.41015941279436
C           87.08674824887622        2.89580710209608        0.27874256981793
N           87.30569540041846        1.55535868782983        0.13694257134094
C           85.83144582323607        3.51315977081855        0.29874523073659
C           85.81471082589229        4.98711072738985        0.45762784461475
C           86.43345216400762        5.81234847600680       -0.48462897332509
C           86.42168277012443        7.18896922734174       -0.32950569048848
C           85.79063914986796        7.72811870423811        0.77963622351335
S           85.77094623764059        9.46937586443016        0.98307612916140
O           85.97141070402667       10.12737921830808       -0.27353185444381
O           87.12767822842521        9.61856257810263        1.86451483859117
O           84.66802693075979        9.87792274809355        1.80282938098639
C           85.16448240536002        6.93638687665704        1.72876802108268
C           85.17801805373635        5.56188504920882        1.56108056647722
C           84.60665030709187        2.84822922730791        0.18920358966032
C           83.32167078234369        3.52216777434447        0.12231245868780
C           82.38739913472914        2.55379624780109        0.03004873310781
N           84.43325243531612        1.50171999544593        0.11595105386756
C           83.10213285479651        1.29144888260183        0.03708862660984
C           82.44956026195113        0.04534899424299        0.01882794923399
C           83.06426697004260       -1.21865624126729        0.00816028329351
C           82.40295681374175       -2.47599119426309        0.01189488889457
C           83.35521319026893       -3.45445156547680       -0.05881806074491
C           84.62892468469795       -2.82287686764599       -0.11774346480546
N           84.40211469248477       -1.47422344911122       -0.05815733301061
C           85.88228350799602       -3.43907253916301       -0.20460337686653
C           85.89236332037400       -4.91699425051307       -0.31477515933116
C           85.26421706843092       -5.54592044242450       -1.39316742522781
C           85.27651630520535       -6.92611005409933       -1.50780581923423
C           85.91695708259701       -7.66895581400191       -0.52934080144484
S           85.94009867094171       -9.41633683542245       -0.67289840777024
O           85.76776778560051       -9.80771969708297       -2.03987724116032
O           84.56989761204395       -9.74180783822421        0.13618026573446
O           87.02786048452639       -9.98083990052564        0.07137668396479
C           86.54879019820230       -7.07496308722117        0.55119094716200
C           86.53519339403718       -5.69369756629855        0.65287778052697
C           87.10883927232230       -2.76616713678484       -0.20318348909337
C           88.40205066193131       -3.41662481515423       -0.35297478643144
C           89.32945854621072       -2.44075777800835       -0.28955116261866
C           88.60400098572747       -1.19442024550361       -0.11383766236665
N           87.26899079733028       -1.42774143566588       -0.07861487898045
H           90.32093424924541        0.02905196350935        0.00643181687523
H           90.38474041132511        2.64483894899857        0.37943770904688
H           88.53265233808115        4.56331159848210        0.55935643860371
H           86.57068306992291        0.86299850861537        0.03899456375111
H           86.90938146548656        5.37212068592507       -1.35310713413981
H           86.88881318019190        7.83835061680845       -1.05919964395904
H           87.21564567583172       10.52302019318410        2.18915093452710
H           84.67449432415400        7.39169267958284        2.58023044931437
H           84.70414255427363        4.92346970941728        2.29753390842989
H           83.17721016929013        4.59032785212761        0.12829803642392
H           81.31652532136050        2.65809149128520       -0.03933093276310
H           81.33396203569632       -2.60591859892180        0.06394473763049
H           83.19305147447952       -4.51994728699654       -0.06151732787000
H           85.13390293042066       -0.77129874304544       -0.06804985164479
H           84.78140183023775       -4.94624185186276       -2.15601948382748
H           84.80377124576142       -7.42241486213245       -2.34598056420042
H           84.53218166541565      -10.67878020707602        0.36390380778162
H           87.04475191188889       -7.68587858343759        1.29499115470561
H           87.01381993292213       -5.21013647906555        1.49637320893964
H           88.55399342010776       -4.47374460765674       -0.49979812038045
H           90.40256564645813       -2.52306755766886       -0.36024396349807
C           58.00711988802740        0.11955331138226        0.00593642321465
C           59.22333761288751        0.12911757682376        0.01523086631418
C           68.91587020922783        0.12963453212681        0.04073209921710
C           70.13345016985480        0.12117009756739        0.04148675859574
C           79.82114519635293        0.05928507941082        0.01587476502350
C           81.03688219345631        0.05019487451165        0.01809723436524
C           60.63341573771191        0.13469735470170        0.02368775584100
C           61.25911100496588        1.16382684134535       -0.70254019315894
C           60.61330582399150        2.16417221409764       -1.47485506650149
C           61.57966224630047        2.95880129016287       -2.02795018208218
C           62.84512288572963        2.47128592534535       -1.60039478889699
N           62.60086787896743        1.38199939301903       -0.80867366965159
C           64.10698185116361        2.98102019133077       -1.92908134203943
C           64.12591671806133        4.18601098465822       -2.79436322420025
C           64.73430341739633        4.13313126145979       -4.05125681660268
C           64.75186046888724        5.24862455539327       -4.87180993798037
C           64.15912630444190        6.41625020740336       -4.41921685241033
S           64.18816851509381        7.83588263150620       -5.44764215047562
O           64.05804201042702        9.02908488677005       -4.66551813901201
O           62.79028764640436        7.58371550860812       -6.23532533781210
O           65.25445544487140        7.75445016522422       -6.40209001406719
C           63.55608052237596        6.50230018969877       -3.17497926553491
C           63.53899011945208        5.37870349396247       -2.36481389000356
C           65.33299072208682        2.45340486688664       -1.51939345112552
C           66.61390348888703        3.07262167936642       -1.80987207003365
C           67.55427166376758        2.28104343100954       -1.25444191909280
N           65.51597843704505        1.32125233655258       -0.78651028939447
C           66.84830077315739        1.18211217048317       -0.62619054745563
C           67.50751911295718        0.13167524881156        0.04281507149838
C           66.87790456169805       -0.92817639036438        0.72317212244550
C           67.51950750809840       -2.01575827278184        1.37006689338039
C           66.55205708198103       -2.80759986824614        1.92477665705431
C           65.28896377894118       -2.22387462948173        1.63335396927299
N           65.53593901229476       -1.09763775700209        0.89566953165055
C           64.02853780516453       -2.70999818572998        2.00188449530057
C           64.01915190202558       -3.92161469673793        2.85839212749620
C           63.43097146030004       -5.10492816828809        2.40479492947960
C           63.42690772684657       -6.23788836140796        3.20165163684687
C           64.01056443095327       -6.17120739851654        4.45658187316530
S           64.02093663199709       -7.60605361829233        5.46514277261532
O           63.97834479237306       -8.79634387253109        4.66703664464564
O           62.56272652079506       -7.42847322688379        6.15576111118145
O           65.02717177480704       -7.49475863871611        6.47833463980761
C           64.60114093021674       -5.01274734633096        4.93389056127061
C           64.60483415512807       -3.88730565397424        4.12633722876191
C           62.80088351041163       -2.15381642408698        1.63900447219937
C           61.51649666305521       -2.66350099097796        2.08657077336463
C           60.57686294490421       -1.87392381177520        1.52739965539463
C           61.28807262983679       -0.87799849820866        0.74951777924770
N           62.62097739945281       -1.06477405743906        0.84343183550855
H           59.54568407667495        2.25174920483399       -1.59593177433869
H           61.43044216992085        3.80145574232532       -2.68303717764794
H           63.31999381428435        0.81141505673149       -0.37678639558331
H           65.18365225167238        3.20669477421103       -4.38929968931334
H           65.22021016092037        5.21856904144739       -5.84758360347764
H           62.67826164508713        8.23963291619487       -6.93429342167973
H           63.11471986192062        7.43519401945254       -2.84744509848484
H           63.08391665481130        5.42919184827150       -1.38249477477678
H           66.75228849247932        3.99691688577184       -2.34685020483154
H           68.62357755848434        2.41602018004038       -1.24425061871174
H           68.58504903647190       -2.17347592001010        1.39496930805987
H           66.69838738352531       -3.72244472018645        2.47526335288556
H           64.81867257612444       -0.48316671221910        0.52531703501096
H           62.99076032081553       -5.13907711007614        1.41514390484382
H           62.98511587462863       -7.16381909446945        2.85539734410653
H           62.27870409909765       -8.26098484907694        6.55271260935204
H           65.05196113243625       -4.99672430772207        5.91817894729948
H           65.05276462507767       -2.96784985211005        4.48498105520009
H           61.37488850186416       -3.50157262185790        2.74942117893135
H           59.50497829077856       -1.93098749913225        1.62790790182164
C           71.54169271264630        0.11672234253029        0.03744227379862
C           72.17136655180542        0.86834936533464       -0.97292144119418
C           71.53255190514572        1.57541713012741       -2.02438031091322
C           72.50045406881914        2.19493523418106       -2.76601394258857
C           73.76097069302593        1.88853483852665       -2.18380493312751
N           73.51213121516761        1.07154665584934       -1.11378893896446
C           75.02073469230265        2.32381935257542       -2.61143539065877
C           75.04055855010579        3.25202000611996       -3.76823354608743
C           75.69325350206235        2.88503479984887       -4.94788599529742
C           75.71219060942583        3.74058101665131       -6.03696039468941
C           75.07620612250084        4.96654330712160       -5.93044176281552
S           75.10465195648671        6.05963683982797       -7.30204423841198
O           74.98964268092827        7.42395123256041       -6.87681701694628
O           73.68831334110105        5.64011683903309       -7.97636298860965
O           76.16437227712291        5.70482131008028       -8.19723915604693
C           74.42777139428688        5.36209101124851       -4.77166809575919
C           74.40958239232776        4.49621156687171       -3.69060167854454
C           76.24483512276895        1.95147351558828       -2.05103288717968
C           77.52623786531757        2.49027302345947       -2.47298646765863
C           78.46500986457048        1.86687694863483       -1.73187036148234
N           76.42355318217562        1.04322380574668       -1.05537093688291
C           77.75616987944723        0.95410561584736       -0.85621808801309
C           78.40939025383136        0.06893084701113        0.01960021406937
C           77.78179578617274       -0.82034298281088        0.90957605930425
C           78.42414381241846       -1.73277518533998        1.78674981439521
C           77.45786324902116       -2.35383385496893        2.52962678328648
C           76.19665277309502       -1.83023442867475        2.13307013245731
N           76.44139985046723       -0.92299163612029        1.13880951279589
C           74.93822402507716       -2.15888787421743        2.65232627977477
C           74.92199359155363       -3.11299175564564        3.78785982560345
C           74.25500701720065       -4.33534987208692        3.67100366890287
C           74.23775377614820       -5.23058449492088        4.72756645581124
C           74.88798813335683       -4.88686603062866        5.90191447737506
S           74.87678491267158       -6.02083246093531        7.24023059532863
O           74.74566550985278       -7.36947756560379        6.77106589860650
O           73.45846093440029       -5.60030104395654        7.90768646966434
O           75.93026809062037       -5.71174585122711        8.15947118802399
C           75.55794614685196       -3.68335744694386        6.04781791803610
C           75.57405621513543       -2.79787677778764        4.98260734984571
C           73.71539008894969       -1.66069427959146        2.19935672689943
C           72.43927723044898       -1.95987871998179        2.82437010810308
C           71.49975466853815       -1.32267235166250        2.09580003632420
C           72.20191963205443       -0.63277603493049        1.03180571813830
N           73.53145852155599       -0.83583848015651        1.13220262660224
H           70.46872284801294        1.59317234437305       -2.19467673230646
H           72.35621356594091        2.80107337632617       -3.64534493356080
H           74.22820021522628        0.67087284422642       -0.51729815078319
H           76.17581700583409        1.91690117675952       -5.01336836096679
H           76.21415747415742        3.46557005298409       -6.95603091762996
H           73.38446350325850        6.33640018143295       -8.57156110140919
H           73.95276414250775        6.33367044310720       -4.71816239386647
H           73.91884372512202        4.79217625119090       -2.77071243251841
H           77.66520964510752        3.25164672483318       -3.22317578998631
H           79.53520921501480        1.99550181422000       -1.75520023127861
H           79.48974734734503       -1.88814525067753        1.83717574932871
H           77.60379709917687       -3.11243600597802        3.28108898201247
H           75.72496324166313       -0.39612169990626        0.65059530164575
H           73.76220069266813       -4.58909634344265        2.73977476589564
H           73.73410331412637       -6.18543551253103        4.64368979138752
H           73.12194829684168       -6.31930331472830        8.45648163128961
H           76.05868696843872       -3.44818902187084        6.97855920731665
H           76.08230739733339       -1.84568953681397        5.08098135645061
H           72.30361339163703       -2.56039607346082        3.70914278109858
H           70.43402827649399       -1.29349307574169        2.25439587507679
