236
 energy: -425.735345372770 gnorm: 0.000769182275 xtb: 6.5.1 (b24c23e)
Co          53.09113483287498       -0.19240637197552       -1.04449614207732
C           50.31307282864908       -0.03977023115438       -2.90666357228049
C           50.70525801811485        1.10034536079788       -2.23388969997311
C           49.95909168678370        2.32171842953171       -2.21340217346508
C           50.55050347665576        3.12333381492594       -1.29332868263186
C           51.69490569516103        2.41587768261070       -0.80639012670840
N           51.77276787945589        1.17840064186494       -1.37445203501322
C           52.67705487304102        2.98694590534300        0.00868626194952
C           52.44733722990989        4.25498643354635        0.58058175138637
C           52.24273029411794        5.33228494283826        1.10049527269960
C           52.00630614527499        6.58822284110303        1.70479528659543
C           52.98531166871862        7.21168402624416        2.48741521915834
C           52.70425882351748        8.43981962356865        3.05896058097122
N           51.54065668809640        9.06590119667253        2.90200098414334
C           50.60490754953680        8.47986231511010        2.15935947484115
C           50.78520496633326        7.25357524127093        1.54469722199245
C           53.92980429931821        2.38997997351724        0.15717165542962
C           55.08445727076178        3.06958649818048        0.65399744608367
C           56.13718794716878        2.23369588145173        0.46869015873577
N           54.26247973345365        1.13485363022200       -0.27750947388974
C           55.60942026431153        1.02271314403949       -0.07703407292257
C           56.34444667111301       -0.16337350080829       -0.18860169727624
C           55.71016779752650       -1.39925718467873       -0.36090183243658
C           56.34344211249832       -2.66048487819086       -0.13825054197769
C           55.37797170783734       -3.60716316081358       -0.25211271848970
C           54.17488936186930       -2.92387251660560       -0.61084836747428
N           54.38685538271503       -1.57101295462957       -0.65316662519172
C           53.00848827161924       -3.56790908266198       -1.02448514360617
C           52.91222203990446       -4.96910970723096       -0.89953972802296
C           52.81619782019830       -6.17294135738626       -0.78015283279177
C           52.70736410482376       -7.57634601055909       -0.64974467713080
C           53.74036984600740       -8.33754763129012       -0.09049715456257
C           53.58299311642315       -9.70835247334432        0.01064692857396
N           52.49031745022110      -10.34761297267800       -0.39956826909462
C           51.50360733147150       -9.63106432643275       -0.93193099397704
C           51.56142622125106       -8.25650785664537       -1.07862949706938
C           51.99060589531014       -2.87433542364618       -1.68725851666365
C           50.94815365496049       -3.50663025872888       -2.43633441009757
C           50.26829919400059       -2.51887954286445       -3.06932692474592
C           50.85688405424068       -1.28253930291255       -2.65135264036542
N           51.92472713717021       -1.51908657021205       -1.82049514034929
H           49.45725125548157        0.02158591551063       -3.56891995471242
H           49.07939188550960        2.51137362676431       -2.80760358416845
H           50.27136248541084        4.11868369060357       -0.98653488415787
H           53.94664522413272        6.73655276968359        2.64134726144678
H           53.44492106241412        8.94603365891046        3.67127785901587
H           49.66759417375460        9.01825770107238        2.05240596903109
H           49.99595156513450        6.81190152385883        0.94847513707961
H           55.08095548868211        4.06918900608871        1.05814475836150
H           57.17439739116737        2.39567817624595        0.71403506297727
H           57.38645786022528       -2.78964671141928        0.10213382771949
H           55.46633442916446       -4.67620593160338       -0.14308211824307
H           54.64772346085618       -7.85757762848683        0.25570948344255
H           54.36849712017634      -10.32393122577994        0.43947594107653
H           50.62666638269893      -10.18415610332577       -1.25556215323958
H           50.73479777690051       -7.71146633914174       -1.51806553076657
H           50.79055674673719       -4.57229515670420       -2.48529565718731
H           49.42207589338823       -2.60009608178292       -3.73286716126512
Co          83.75746753836650        0.04439675936909        1.17822779400396
C           85.96663379791903        0.76370045754201        3.58805027656325
C           85.82360407807583       -0.55748625911830        3.21350493882795
C           86.61500274953856       -1.63263824862351        3.73021579940393
C           86.33118484904053       -2.72232021356514        2.97459756915835
C           85.31823511928300       -2.32568735525219        2.04502512842729
N           85.02410384166761       -1.00223642348460        2.18991937833400
C           84.62309483865599       -3.21577671840853        1.21985073157807
C           85.07115360595799       -4.54821693150406        1.11255182007754
C           85.47116285605969       -5.68792681310902        0.99508708209092
C           85.93256423648926       -7.01704542131745        0.85761314854709
C           85.23932467241937       -7.94735435397932        0.07428508594614
C           85.73337237654935       -9.23534263022239       -0.03052533179541
N           86.84388193228195       -9.64026085838059        0.58048478881656
C           87.50846802033368       -8.76200709742892        1.32715179218511
C           87.09962899182192       -7.45120132849158        1.49702359075933
C           83.42205971687575       -2.84980036277627        0.61104429874201
C           82.48289833800786       -3.78273592967007        0.07284473389693
C           81.36635769021181       -3.07576838803386       -0.23545309156644
N           82.90794351636350       -1.58069846548730        0.57950428885914
C           81.65460415795785       -1.70595924916302        0.05174268655710
C           80.83307420863865       -0.64014097589633       -0.33708463813737
C           81.32173955363095        0.67202019808632       -0.38574429423936
C           80.68387273066115        1.73612029831356       -1.09414941951131
C           81.53202865434436        2.79465061589407       -1.05547129790169
C           82.65169675258139        2.39278880003833       -0.26332301011804
N           82.51951617372313        1.08504110115545        0.12355493898018
C           83.63927811881783        3.26871418020353        0.18788487290069
C           83.68064408357795        4.58251422494670       -0.32248208043940
C           83.72933111802801        5.70850558493887       -0.77243944044066
C           83.78111681840994        7.02271129297432       -1.29076601486414
C           82.94377324166852        7.42402630119522       -2.33816699838253
C           83.03365668248102        8.72234135083846       -2.80764363541149
N           83.88187028258096        9.61869692113955       -2.31013656231035
C           84.68085737250237        9.24516177732591       -1.31409224268180
C           84.67089364993775        7.97157879976048       -0.77373668633091
C           84.49853697643859        2.91845018985318        1.23478304649506
C           85.28023909375116        3.85927809227195        1.97725389862106
C           85.83274703129339        3.17748650374742        3.01097187555253
C           85.43986815173427        1.80947778541107        2.85691763347781
N           84.60630607300571        1.67128864298016        1.77425189527940
H           86.62552604749455        0.99553795029056        4.41682493251050
H           87.31693803458015       -1.53987822791399        4.54361560095739
H           86.73577767923065       -3.71907966649148        3.04935960581067
H           84.33080277089149       -7.65930748514688       -0.44066423924250
H           85.21624989796334       -9.97759331285085       -0.63179121913549
H           88.41010678340250       -9.12600193728015        1.81123995370704
H           87.67126385903015       -6.76867851775151        2.11419870111784
H           82.65557759090538       -4.84309475168950       -0.01846331556579
H           80.44080866280721       -3.43267925213991       -0.65747595990577
H           79.72480979958441        1.66183592012169       -1.58054038701395
H           81.40610279033071        3.77490433453443       -1.48644021753577
H           82.23805975613094        6.72603051022875       -2.77219075911040
H           82.39643325510626        9.06095002043224       -3.61958414376134
H           85.36039643345485       10.00160588166443       -0.93196606413712
H           85.33913189311370        7.70924622961357        0.03751006762511
H           85.35891393784694        4.90883698086746        1.74267708999835
H           86.47732919614785        3.54465388119862        3.79368368143694
C           57.73181876241436       -0.12803778093644        0.02518978454458
C           58.93524486115801       -0.08035194059142        0.20586835909148
C           68.15389991335441       -0.82802572926068       -0.73605433655535
C           69.26046368531517       -1.08765695885886       -1.17902765253740
C           78.41189237610558       -1.13673379475921       -1.20985793575098
C           79.54246285033101       -0.90753514170409       -0.81673537375916
Co          63.67261906591943       -0.04765775012453        0.62567003753165
C           60.32168181258438       -0.03475914337934        0.42032607933343
C           61.01044726193367        1.16050682364077        0.17425653539622
C           60.37603594315816        2.41075286028820       -0.09656075222819
C           61.35830716689609        3.34773477385688       -0.13015008512120
C           62.59224847987800        2.65204084014578        0.05368751499389
N           62.36393240741279        1.31933084982056        0.26511668815545
C           63.84975834432793        3.22525560623175       -0.15613708443562
C           63.94392384031009        4.61739880381409       -0.35893515622974
C           64.02961349927941        5.81714795395844       -0.52019449470721
C           64.12838230614112        7.21344234458081       -0.71880068400383
C           65.36247927902666        7.82468030928884       -0.96888330173979
C           65.40465522503388        9.19429894075405       -1.16050183006661
N           64.32279893561356        9.96773311649709       -1.11937843682149
C           63.14594204632580        9.39429346845470       -0.88197672471608
C           62.99542738331714        8.03433470876446       -0.67657448762449
C           64.99178576065482        2.43774129129220       -0.31882664509600
C           66.21401281602621        2.90249452389704       -0.89343663399893
C           67.01181222581329        1.81382323336139       -1.04287094474978
N           65.05823428300987        1.09269317806207       -0.07519288676164
C           66.29728594159975        0.70405229816116       -0.49610968701920
C           66.87728920845377       -0.54691920934424       -0.23881916460496
C           66.27173314962796       -1.45636033969397        0.64259278773407
C           66.95856103328279       -2.53967156522478        1.27049942939039
C           66.09518852584054       -3.08136847218065        2.16770630890239
C           64.86504587324805       -2.36778283932253        2.03198772041194
N           64.99802529939406       -1.35591455391885        1.11753068683482
C           63.65602621857629       -2.78078629722043        2.59330866664641
C           63.65593223551674       -3.83425777832014        3.53006014293220
C           63.65704726194681       -4.72482327580376        4.35446188430945
C           63.66001888314278       -5.76657071832366        5.31009018070651
C           62.46538803498701       -6.28205467509043        5.82604700774353
C           62.52423387417716       -7.30199719449840        6.75916881904644
N           63.66808192073754       -7.82274819730126        7.19578807082724
C           64.80809349534752       -7.33794131919689        6.71032395726641
C           64.85886401855588       -6.32016471265650        5.77454928470099
C           62.43304875158260       -2.27458465031376        2.14031424618110
C           61.16982919243708       -2.89693225024550        2.37579911556814
C           60.25473086245920       -2.20542199869865        1.64876521293624
C           60.95503334132329       -1.12635974865513        1.02729560537644
N           62.28967802823771       -1.19364863434445        1.31656287811844
H           59.31359264273169        2.54719501672233       -0.21757697313632
H           61.27142778910211        4.40854133025433       -0.30216597007689
H           66.26793274262560        7.23152079629460       -1.01108889288324
H           66.34816172126766        9.69543062529957       -1.35633110027245
H           62.28442171324833       10.05522132978374       -0.85575149419009
H           62.01790821301749        7.60791047349502       -0.48690189245380
H           66.41168864613007        3.92531610133820       -1.17151737448234
H           68.01015830785093        1.76320558495136       -1.44658752261337
H           67.98054561739630       -2.81787095917100        1.07021444268778
H           66.25237449196007       -3.91217899305841        2.83660592195458
H           61.51191207164073       -5.88661152833024        5.49745184070525
H           61.61340027394227       -7.72153644135129        7.17632747510819
H           65.72223659463060       -7.78597623936587        7.08895210919225
H           65.80919318819412       -5.95431627129740        5.40510416371360
H           61.02003888405454       -3.76724323281319        2.99431423300318
H           59.19354050024614       -2.37695734206068        1.56761516577446
Co          73.82448037823819       -1.68441418397791       -2.20897782582253
C           70.55892317871121       -1.34671244622510       -1.62714557693930
C           71.17476529750944       -0.44868991514387       -2.51419820970169
C           70.47906650979503        0.55827007033851       -3.25011319099346
C           71.36165043046265        1.06233911435228       -4.15201656090870
C           72.61027220390130        0.41262869821398       -3.90910583142174
N           72.47298340691856       -0.52654685493533       -2.92264939820335
C           73.83114410764860        0.81970638744038       -4.45298954035488
C           73.84223945154169        1.76404651497207       -5.49912231744394
C           73.86249473277930        2.55808358016249       -6.41670938095033
C           73.89110972075608        3.48816118220652       -7.48098386936680
C           75.09433155000286        4.06189549893777       -7.90792194711296
C           75.07002410125948        4.96904911511530       -8.95228211854916
N           73.95201869986293        5.32628578682509       -9.57886929325047
C           72.80449099440752        4.78434739768132       -9.17993814569966
C           72.71972772116015        3.86981393722890       -8.14504808291449
C           75.04464321933547        0.43490298757296       -3.87215914320119
C           76.28714512556655        1.10640622086927       -4.08186391779277
C           77.16398402151867        0.59184872146608       -3.18048771979238
N           75.17657229113691       -0.51843141165773       -2.90123588461994
C           76.47184051920915       -0.43960560248934       -2.47597913199977
C           77.09587202152622       -1.37016366265984       -1.63161526512235
C           76.48018004460114       -2.59381586828573       -1.32857943323421
C           77.17085965948951       -3.74534461377145       -0.84340702345476
C           76.28345773645269       -4.77382663381754       -0.87005850016847
C           75.03658131125721       -4.22651983852318       -1.30072194159294
N           75.17707709167111       -2.89911678166820       -1.59880013632326
C           73.81450811415404       -4.90397607410862       -1.23365100765386
C           73.80958876140795       -6.28576411607448       -0.95502852850413
C           73.80101577015610       -7.47893575543517       -0.73340116381216
C           73.79060357007901       -8.86692163281543       -0.46488152692599
C           72.59542930748972       -9.54335785503389       -0.19425282560345
C           72.63890931753478      -10.90130177245681        0.06699985361323
N           73.76835764124320      -11.60449069260008        0.07273121598810
C           74.90846448537970      -10.96932650810149       -0.18579515724720
C           74.97416468095675       -9.61414009511685       -0.45739204316106
C           72.60054956141890       -4.21266152158613       -1.27193496658870
C           71.35471827270982       -4.74169432010516       -0.81596394472264
C           70.47814427344053       -3.70389418187381       -0.78876697557151
C           71.17407199738240       -2.56527750236708       -1.29726568278312
N           72.46869970328584       -2.88638126184381       -1.58222703030591
H           69.43912715564989        0.80933248506675       -3.11647202814623
H           71.20346155582048        1.83189435944523       -4.89045243969987
H           76.02750888825128        3.79868314192025       -7.42462784490440
H           75.98818552982068        5.43118727339792       -9.30366817488021
H           71.91238939167785        5.09787783982695       -9.71394120585312
H           71.76424867467036        3.45283038179495       -7.85143270485509
H           76.44655381692468        1.89329802711551       -4.80147162394017
H           78.19939080056717        0.85112184349993       -3.02999845126833
H           78.20937907708343       -3.76312443948592       -0.55509469411648
H           76.43751773253483       -5.80282621637373       -0.58745781838830
H           71.65359435054347       -9.00830406054672       -0.18887095014276
H           71.72733659667126      -11.45173853550071        0.28175009129535
H           75.81042786302044      -11.57424342853203       -0.17409089166918
H           75.92426422985849       -9.13589762924078       -0.66218703530351
H           71.19343684686434       -5.76609076179032       -0.52082201472327
H           69.44124394247881       -3.70958982594281       -0.49389528402013
