193
 energy: -367.866463345951 gnorm: 0.000484688160 xtb: 6.5.1 (b24c23e)
Co          36.05243442986765       -0.02724939636909        0.01641907976084
C           32.68214130351861       -0.02838394088426        0.03985520220569
C           33.34650826559717       -0.34402646309853        1.20563716507008
C           32.69164087572930       -0.68028173177918        2.43328858728121
C           33.65081183641023       -0.72097631990086        3.38719679706015
C           34.89318582922282       -0.41043175580680        2.74135084336298
N           34.70112428872545       -0.23189416216083        1.39469712645062
C           36.07371301351117       -0.13296960948035        3.41643390698307
C           37.24221718712486        0.20121511965512        2.74834252815682
C           38.48410038858880        0.49820024920274        3.39706266169959
C           39.42969716762254        0.54974268015474        2.42866005533463
N           37.42203044124959        0.11704020526855        1.38681664878224
C           38.76689070015483        0.27429454745714        1.19302294458122
C           39.44029837717679        0.01644318921768       -0.00204333710731
C           38.75786042286271       -0.26030491280742       -1.18770931951210
C           39.40565608458729       -0.57046617207341       -2.42270936276831
C           38.44616271292350       -0.55550964710164       -3.37946370122507
C           37.21576187055150       -0.22507672862425       -2.72571607345416
C           36.03015871937430        0.06222420366758       -3.38702754431899
C           36.02164168087469        0.10626949140531       -4.86583981730516
C           35.17575448505754       -0.73320138857589       -5.59587533279903
C           35.16487680545372       -0.68227720392199       -6.97746235489843
C           35.99484364279109        0.21278210269530       -7.65527410814671
C           35.93926154345429        0.23772487426087       -9.13663440461207
O           36.76735531412545        1.13652624824088       -9.68996152177177
O           35.22599844532453       -0.46904624674909       -9.80235522795762
C           36.84204171415578        1.05227337870348       -6.93127179666693
C           36.85593150389828        0.99523511781278       -5.54876735733527
C           34.85155947000676        0.31523042591487       -2.69771395133314
C           33.60851533709631        0.66726025801793       -3.31994960449091
C           32.66314556987313        0.63642930825099       -2.35144078815981
C           33.33065071333579        0.27895649746428       -1.13678929126638
N           34.68097627412948        0.15021617031661       -1.34691164124317
N           37.40980086150215       -0.11546454461733       -1.36844139204920
C           36.08190287171637       -0.19093685645810        4.89743650209978
C           35.90236865480156       -1.41087815833331        5.55351128089244
C           35.90855814884991       -1.46594453619537        6.93517776513706
C           36.08951180814141       -0.30195301783026        7.68451151784769
C           36.08256147002471       -0.41137172826510        9.16322757445628
O           36.26713258207509        0.76063833063491        9.78930988191259
O           35.92711204615571       -1.44164004677355        9.76794935153992
C           36.26763455899138        0.91862554007106        7.03275650401628
C           36.26570620347244        0.97104317070237        5.64955611720709
H           31.59869528899704       -0.02173893022179        0.04898540221265
H           31.63030508169668       -0.84178166723104        2.53472634047774
H           33.53800201466537       -0.91752395294798        4.44098951355359
H           38.60922440111048        0.62615454262214        4.45986356152844
H           40.48757049405157        0.73235028937278        2.52785172753575
H           40.46112012516181       -0.76324700891661       -2.52824677415044
H           38.55077347367646       -0.74790204169431       -4.43480828467880
H           34.53858898953967       -1.43665284531031       -5.07209731877796
H           34.51408548945882       -1.33363404199170       -7.55045214796309
H           36.66914787146032        1.09179352974360      -10.65495074693433
H           37.48617458405644        1.75004468581759       -7.45310788640595
H           37.50406826360755        1.65736044870687       -4.98576332372988
H           33.48842312264890        0.90241551616258       -4.36503765905824
H           31.60502173888313        0.82737900138545       -2.43333870439829
H           35.77192274795837       -2.31645640870375        4.97214229317130
H           35.77425890586858       -2.40959223824653        7.45246591336939
H           36.24820993350246        0.60398009291502       10.74742854004429
H           36.40506717035954        1.82467666885258        7.61093635600928
H           36.39167593980549        1.92095790653156        5.14249167652617
Co          62.80271812558525       -0.00167308073440       -0.04097600384678
C           66.17244672751892        0.01416777688978       -0.06947419242052
C           65.50751819291565       -0.16894050960293       -1.26308556156520
C           66.16142189558396       -0.35925035883354       -2.52211203464944
C           65.20011590274068       -0.29688626591916       -3.47279973537173
C           63.95776516236081       -0.06843921970030       -2.79353811252351
N           64.15187767673342       -0.04423823794814       -1.43578112084665
C           62.77480199849587        0.28088930174261       -3.43052190585411
C           61.60735966062916        0.53551314427280       -2.72652037735243
C           60.36417016826520        0.90591833754627       -3.33349267756612
C           59.42085342610660        0.84526863095692       -2.36321786411455
N           61.43020656620683        0.29315459019047       -1.38355604245423
C           60.08642268874015        0.42746934813762       -1.16974622047512
C           59.41496936868353        0.02791148722680       -0.01219642817529
C           60.10045421880731       -0.38789515822948        1.13111462368438
C           59.45550750303270       -0.84619626319767        2.32066774824377
C           60.41698299651414       -0.94562544580168        3.27041893662623
C           61.64539093800374       -0.53574636075632        2.65918890797142
C           62.83138355657785       -0.32583835567650        3.34794696581951
C           62.84459848646620       -0.46259641162685        4.82100387636229
C           63.69665601176788       -1.38141091822436        5.43989116704195
C           63.71223256367409       -1.50034756601700        6.81723677848106
C           62.88121636370794       -0.69873668389488        7.60221131367865
C           62.94183762570034       -0.85575864774363        9.07538281849964
O           62.11336698291625       -0.03426851216652        9.73725807423645
O           63.65893140608470       -1.63718767791061        9.64679439534122
C           62.02831278922274        0.21968796777806        6.98933144479898
C           62.00945544624584        0.33249003709140        5.61026851860060
C           64.00722316496534        0.01572504761989        2.69216728837667
C           65.24913255886145        0.29927228441267        3.35048287984434
C           66.19250516979440        0.39196904501959        2.38385851422151
C           65.52472014691153        0.17736035460956        1.13618171400205
N           64.17593070088289        0.01400176239512        1.33142543918295
N           61.44814680031168       -0.26360548010169        1.32520635529127
C           62.76420486076191        0.39071292411882       -4.90850872624210
C           62.94581925570805       -0.74729575710150       -5.69781076569418
C           62.93781298066916       -0.64675311697605       -7.07687741513883
C           62.75313267705468        0.59364706476243       -7.69043663738996
C           62.75725751679980        0.65074208365215       -9.17208766590897
O           62.57117037246087        1.88541734724750       -9.66244888762959
O           62.91165837180795       -0.30522305096227       -9.88877837638208
C           62.57330604639598        1.73280435287417       -6.90539415132594
C           62.57688329646269        1.62944163710266       -5.52503646915669
H           67.25582254707746        0.02874257640106       -0.07943668622418
H           67.22338660141085       -0.50198494776955       -2.64315014306823
H           65.31148066441025       -0.37151433292370       -4.54231724961673
H           60.23654851845701        1.15666964144458       -4.37388333591143
H           58.36292752167311        1.03883790390750       -2.43801435690621
H           58.40051892833714       -1.05195583770407        2.40411161231111
H           60.31483912692369       -1.26431533181951        4.29496973455708
H           64.33478381479816       -2.01235980605267        4.83171263176559
H           64.36765639073484       -2.21419500771851        7.30403067748544
H           62.21449913215164       -0.19680256650557       10.68922819382854
H           61.38363212467083        0.84564102108238        7.59485031340693
H           61.35691132445447        1.05603169144082        5.13475167244861
H           65.36988119737545        0.40822390684934        4.41606325592411
H           67.24940164768157        0.57952388082190        2.48663956496919
H           63.07929199101207       -1.71214192000593       -5.22205081038990
H           63.07363893809807       -1.52593840011824       -7.69710968635178
H           62.58784756844216        1.83704286339128      -10.63209920656988
H           62.43322997692813        2.69778904657850       -7.37793986753075
H           62.44970393615842        2.51609485575309       -4.91433206513483
C           42.06800438517730        0.03548132068267       -0.01006184055751
C           40.84659028481792        0.02712218890892       -0.00886090336150
C           43.41904964877310        0.04117567564321       -0.01134408838383
C           44.64069065328620        0.04485683147059       -0.00824933318332
C           55.43808324608932        0.03878344406889       -0.00032382905372
C           54.21595679351032        0.04064497843072       -0.00606687546822
C           56.78812407150210        0.03640409658062       -0.00054856013306
C           58.01001243668344        0.03377969470739       -0.00252228970544
Co          49.42887223793520        0.04283055497477        0.02336689182098
C           46.04547413546597        0.04403778316129       -0.00991156451606
C           46.72669742029509       -1.13996072714122       -0.30429759190508
C           46.08437177873227       -2.37044928904415       -0.64224634010192
C           47.03910455232302       -3.33207819577859       -0.59987536283580
C           48.25985733240215       -2.68536488622583       -0.22336236780636
N           48.06933706621856       -1.32723151682350       -0.12642063645060
C           49.42730464382134       -3.34639185103075        0.13679195933168
C           50.59485697675134       -2.65708829800233        0.44028313219705
C           51.81100555047832       -3.26576360393144        0.88716233679899
C           52.76600567586696       -2.30338391805258        0.85204826433320
N           50.79010367419297       -1.31678928807208        0.20856804027442
C           52.12862057735981       -1.11052306098608        0.39297572759419
C           52.81237611782095        0.03995885280826       -0.01171801600133
C           52.12967889197289        1.18792166895603       -0.42435245248602
C           52.77018913787330        2.37773016353981       -0.88763101323321
C           51.81480809711546        3.33839341262210       -0.94050622856797
C           50.59599664814014        2.73320542201929       -0.49500676642644
C           49.43118934771694        3.42694909915308       -0.19294736887454
C           49.43303920119795        4.90340631901282       -0.26580669173887
C           50.34815013236216        5.64735533780085        0.48461458351470
C           50.34564501560145        7.02821704853433        0.41860485784991
C           49.43226057608892        7.69177311228249       -0.40280134277433
C           49.47087266470358        9.17378430409360       -0.44162958644447
O           48.55220530162646        9.71319279129836       -1.25645687024186
O           50.24348605357175        9.85003217582940        0.18833399729905
C           48.51849127839454        6.95410511018672       -1.15606565903102
C           48.51874503041164        5.57219984647353       -1.08431610593953
C           48.26484670549986        2.77037973264128        0.18131932430997
C           47.05027771829393        3.41911282260046        0.57270410485512
C           46.09405840525301        2.45879652830328        0.62774838410994
C           46.72963150695115        1.22757561280444        0.28147569784613
N           48.06835639905962        1.41452363907517        0.07708485292294
N           50.78774262653567        1.39137535923112       -0.26311403248164
C           49.42807498287580       -4.82346840666823        0.20167453549223
C           48.52686942238729       -5.49666626976278        1.03129581277337
C           48.53225180252493       -6.87785950425817        1.09148180444667
C           49.43356395788247       -7.61234647509391        0.31860562727736
C           49.39709281561776       -9.09212081183170        0.41416417602694
O           50.29728910967366       -9.70254115155959       -0.37026348456563
O           48.64072581088806       -9.70832515405615        1.12068779670927
C           50.33369280246864       -6.94543292014175       -0.51293005467482
C           50.33161198288246       -5.56267310002558       -0.56653273388154
H           45.03483536690477       -2.47129540678632       -0.86703751259015
H           46.93499951888731       -4.38641033802432       -0.79780512295331
H           51.91165955104405       -4.29663273107375        1.18535783312177
H           53.81242601181531       -2.38256955101373        1.09903399202483
H           53.81879149235316        2.45525825042338       -1.12574544270209
H           51.91741742712470        4.36679107107002       -1.24632688053206
H           51.04845564335176        5.13481518386972        1.13426064235931
H           51.04895297130737        7.61166276234016        1.00260320878023
H           48.64291248809801       10.67950434233726       -1.22598394969645
H           47.81027834973869        7.46494010713342       -1.79761966979276
H           47.81785709626594        4.99886348669238       -1.68050072251703
H           46.95110749077350        4.47310913530429        0.77520264771396
H           45.04820712195943        2.56168401418965        0.86836999942418
H           47.83519430432309       -4.92774535257758        1.64210072482757
H           47.83986155223082       -7.40660886110888        1.73734572342093
H           50.20958611325129      -10.66226627937962       -0.25111235305138
H           51.03281090816414       -7.51168738458753       -1.11672863581360
H           51.02218633069015       -5.04498271890108       -1.22256362832779
