150
 energy: -225.523505688838 gnorm: 0.000323913755 xtb: 6.5.1 (b24c23e)
Zn          17.03173656575389        0.07931752129686        0.02747170809110
C           13.60818625046293        0.15446352405778       -0.02566300701431
C           14.24915316494554        1.29190754254311        0.45176726979064
C           13.59046945462752        2.47852779284501        0.92435368394372
C           14.56092173346407        3.35161605308931        1.29441221718561
C           15.82427364582232        2.70849750527142        1.04933571588023
N           15.60054336554603        1.46194297537161        0.54238878135981
C           17.07864596164433        3.27667362561732        1.28429107169110
C           17.09928027953046        4.66288263082250        1.83827304024836
C           17.03731208418458        5.76194039509684        0.97697474741986
C           16.95897609817268        5.54567312113346       -0.51105112450742
C           17.04673007713283        7.04735060855117        1.50588976048583
C           17.11566083006610        7.25402818956762        2.87984723869543
C           17.14111409429170        8.65069489795566        3.44020799419791
C           17.18053035353698        6.15338930208088        3.72801149226271
C           17.17268841934514        4.85951365400111        3.22019697048894
C           17.24013658824452        3.67289810777669        4.14453418023942
C           18.31302710227199        2.66731903014851        1.04831063627433
C           19.58814548461760        3.28565018082652        1.27661874754916
C           20.53599960392498        2.37750686157240        0.93139827885991
N           18.51127753605076        1.39952393315060        0.56884333858578
C           19.85514345477960        1.19502486256986        0.49330921539334
C           20.48897528180775        0.00833066955384        0.06622134542793
C           19.81612674629001       -1.15487099880830       -0.36588348016633
C           20.45710925803667       -2.36957089131889       -0.77493967687005
C           19.48066556953833       -3.24066122140458       -1.13558902263882
C           18.22751942720417       -2.56619038842765       -0.94788242611032
N           18.46702985245317       -1.30377809418573       -0.47296875502705
C           16.97542816395817       -3.12290399318875       -1.21891537389184
C           16.95505813853379       -4.51078261294262       -1.76876821151172
C           17.08299600972266       -4.71529680247161       -3.14633164676682
C           17.24237651074720       -3.53583485884962       -4.06859230123850
C           17.06212927666950       -6.00955797118840       -3.65050618887653
C           16.91637657112276       -7.10471595006195       -2.80341393904140
C           16.88914451120500       -8.49763340094797       -3.37307001819498
C           16.78941434409350       -6.89041175726078       -1.43592215758848
C           16.80742791112808       -5.60290399340025       -0.91005526251421
C           16.67064726842191       -5.37955125025558        0.57273698089852
C           15.74053294841281       -2.49895961987270       -1.02626610511461
C           14.45818642777478       -3.08545728955899       -1.31156272231605
C           13.51644695347120       -2.16862045171562       -0.97453972604959
C           14.21214210145216       -1.01142023199239       -0.48232815325325
N           15.55668564363108       -1.24203941493393       -0.52903440592585
H           12.52304270093521        0.17909647716415       -0.04302954082887
H           12.52082326174262        2.61393620724571        0.96382213030797
H           14.44339490197830        4.34431332108652        1.69954879030556
H           16.03762962658853        5.01927959572672       -0.76841411473110
H           17.79773670651279        4.93494276332404       -0.85021315256795
H           16.97815127362654        6.49549410788233       -1.04469199228841
H           16.99700772912269        7.90017874894381        0.83664905555310
H           16.70428535489495        8.67665620561662        4.43885713971115
H           18.17239858642625        9.00438680960893        3.51141645674612
H           16.59112778845736        9.33764111907891        2.79642875512339
H           17.23487089923719        6.30513186506600        4.80117982343881
H           18.14599809250973        3.09473657649975        3.95164480725058
H           17.24464236738900        3.99032486477282        5.18689723866272
H           16.38403900424129        3.01555685723953        3.98114148613353
H           19.73222965264771        4.28737677245265        1.64895290155213
H           21.60557415097378        2.49589391517886        0.96684162021638
H           21.52109692794762       -2.53452754605824       -0.77845183575421
H           19.59159503623805       -4.25219800560678       -1.49247894423771
H           16.41539531250676       -2.83578428526105       -3.93582056741898
H           17.26751128065080       -3.85585925951814       -5.10987353091966
H           18.16904580228979       -3.00360709578958       -3.84465482066879
H           17.16137599808931       -6.16869396747106       -4.71942146258504
H           17.74935263561176       -8.66060544171262       -4.02445590842306
H           16.90419913497760       -9.24513542261412       -2.57999414051546
H           15.98503682457514       -8.64294111239525       -3.96808318156489
H           16.67572849458163       -7.73737361966920       -0.76703981933815
H           15.76019585755258       -4.81646761967134        0.78771871211971
H           17.51680871964085       -4.80164396236843        0.94913899072864
H           16.62777869645599       -6.32799915146263        1.10749179288095
H           14.30943216990729       -4.07282190351903       -1.71948351613720
H           12.44363275354679       -2.25595105151073       -1.04866803926679
Zn          27.98777269689978       -0.07626037371179       -0.03505489720866
C           31.41132229130432       -0.09367674129658       -0.12546413591473
C           30.77035682458920       -1.24497705081222       -0.56843870550221
C           31.42904487984377       -2.42843340352091       -1.04888162840500
C           30.45859504357778       -3.31461578204993       -1.38639117234049
C           29.19524105529209       -2.68087980731473       -1.11799332376737
N           29.41896625052827       -1.43042105040866       -0.62074918010634
C           27.94087199153998       -3.25352721924400       -1.34184342301928
C           27.92024099866947       -4.63733380660978       -1.90180406390271
C           27.98221663841159       -4.83410476402622       -3.28420984060152
C           28.06055172054481       -3.64785248027118       -4.20822276447460
C           27.97280019832316       -6.12782078690964       -3.79247173734747
C           27.90386518598106       -7.22817792969547       -2.94412828301083
C           27.87841559175695       -8.62394601527220       -3.50672271758145
C           27.83898854108893       -7.02117269829250       -1.57010578232989
C           27.84682680421788       -5.73595708674634       -1.04075768365465
C           27.77937673633180       -5.51965306963010        0.44775445101173
C           26.70648941476413       -2.65046020440271       -1.09023940344299
C           25.43137389520052       -3.25471976567586       -1.35355418031264
C           24.48351882622353       -2.36042172380817       -0.97391020801056
N           26.50823674051082       -1.40370036833800       -0.55846491872008
C           25.16437062491688       -1.20385484055623       -0.47137426108377
C           24.53053226430980       -0.05187629266986        0.04202626525920
C           25.20337524974531        1.08663059639032        0.53555180821518
C           24.56238976301936        2.24632970823042        1.08137105192214
C           25.53883234333435        3.12458556920998        1.42420727467460
C           26.79198033261036        2.50795732316302        1.09268015379533
N           26.55247258144598        1.26821966895716        0.56138133064665
C           28.04406983228888        3.09732365416574        1.28252686566137
C           28.06443718689406        4.47947396972094        1.84662152708579
C           27.93650360477135        5.58076810382633        0.99417748779693
C           27.77712174885087        5.36818573826784       -0.48788242520248
C           27.95736704636536        6.86374308532798        1.52641777202209
C           28.10311364466011        7.06753477620640        2.89587335058030
C           28.13034329041671        8.46703299356759        3.44916586096653
C           28.23007399808602        5.96614893112936        3.73427148076911
C           28.21206296828419        4.67302922046168        3.22235971532328
C           28.34885179055063        3.48529162641299        4.13769301908159
C           29.27896922584737        2.51372210907529        0.98957389275207
C           30.56131266046425        3.13446062490931        1.18973707225916
C           31.50305881324349        2.23953550219528        0.79824174948216
C           30.80736456393653        1.06376785619948        0.35218656140291
N           29.46282342795432        1.26249348404818        0.47819510141179
H           32.49646836156435       -0.09946534407434       -0.15495548959036
H           32.49869189163138       -2.55347666693784       -1.11411369811903
H           30.57612447211696       -4.31140693989074       -1.78134916168721
H           28.98189566267940       -3.08983294895509       -4.02949136458974
H           27.22178876978019       -2.97234969900766       -4.03013721422524
H           28.04138280046032       -3.96377564459886       -5.25087554096829
H           28.02252341493314       -6.27987984251941       -4.86582035952512
H           28.31524624594179       -9.33406588520313       -2.80408333542097
H           26.84713204258062       -8.92846774158847       -3.70020864983897
H           28.42840221327447       -8.67393258210578       -4.44685441382342
H           27.78464712201950       -7.87364739225495       -0.90077570546769
H           26.87351500005732       -4.96891770257169        0.70884241602219
H           27.77486779617742       -6.47035909361409        0.98014403863919
H           28.63547470516755       -4.93220667889006        0.78495069877250
H           25.28729210177645       -4.23532455784050       -1.77841276839721
H           23.41394574532920       -2.47039759522148       -1.03028279188625
H           23.49840069092699        2.36778600978445        1.19303980088169
H           25.42790051846646        4.10157849766074        1.86699386467454
H           28.60410257495377        4.77111590519828       -0.87673588603707
H           27.75198926972161        6.32001478990168       -1.01769721889091
H           26.85045210599808        4.82910104069406       -0.69476720452762
H           27.85811687328116        7.71860695490840        0.86527466452359
H           27.27013614979874        9.03560069417615        3.09195989591934
H           28.11528419295702        8.45735585941606        4.53895256020120
H           29.03445216279927        8.98382756868235        3.12041580319076
H           28.34376403603823        6.11422432886986        4.80329857899703
H           29.25930684816157        2.93014590806103        3.90298748153368
H           27.50269486677600        2.80768398698211        4.00920131543418
H           28.39171732918811        3.79945852048584        5.18019764078498
H           30.71006160104722        4.12935594625295        1.57892887656009
H           32.57587305196961        2.35387423545312        0.80522233936147
C           21.90037056825937       -0.01566500221260        0.06785790874742
C           23.11913772023304       -0.03579876386392        0.05987501873127
