508
 energy: -893.337023634771 gnorm: 0.000976129478 xtb: 6.5.1 (b24c23e)
C           94.97797798503287        0.15265355203370        0.08550092432413
C           95.58936513263662        1.28150266327298       -0.44492200860501
C           94.93919261896440        2.42902200805982       -0.97939693241954
C           95.90300216789926        3.31106701182634       -1.38040133503957
C           97.17354214168827        2.73633634259683       -1.09179865915441
N           96.93316040399780        1.50903166358492       -0.54170690583227
C           98.43862540539533        3.29054292838368       -1.32005557079021
C           98.47896844408409        4.65592034168675       -1.89690513423938
C           99.11661029710588        4.88858567501242       -3.11640960844028
C           99.15611386967434        6.16091643159372       -3.66468133513376
C           98.55901258522850        7.22319817147556       -2.98978407280363
O           98.57658587276441        8.48586273013963       -3.48888834670634
C           97.92148087388624        7.00567635104241       -1.76970520147435
C           97.88145890284231        5.73069782761379       -1.23363585116165
C           99.65027521514473        2.65165685058671       -1.04356260810604
C          100.95134633066020        3.27477598715474       -1.20768256204894
C          101.86651706875745        2.34881893567658       -0.85343380255612
N           99.79701838234382        1.38123290636316       -0.57657042433135
C          101.12338520086344        1.16555596186290       -0.46621023426254
C          101.75311640181297       -0.02871424800458       -0.06135476525008
C          101.11232553359362       -1.20564801685866        0.36944585469767
C          101.74969811474777       -2.42007516801265        0.73729666382466
C          100.78104489471419       -3.30495152512386        1.12287295882350
C           99.52165260277006       -2.65301771890847        1.01216291707613
N           99.77316096985545       -1.39182167969690        0.53948436441755
C           98.26073317744037       -3.18064834852107        1.31115870109939
C           98.22447846632434       -4.55585164040509        1.86293535784700
C           98.89089304199297       -4.86349171911567        3.05217678960556
C           98.85963767055354       -6.14519629647905        3.57199249555005
C           98.16156084385935       -7.14690877733154        2.89985035799408
O           98.15527483706107       -8.39470998697557        3.43515948564935
C           97.49483927878261       -6.85643917685756        1.71174350162104
C           97.52603722610699       -5.56762380272710        1.20249145069333
C           97.05032964496687       -2.50283306312938        1.12678223114578
C           95.74871382055798       -3.03372362295543        1.50034111822980
C           94.84039502053503       -2.10007144680154        1.15163155442045
C           95.58668709236349       -0.99458889384152        0.57751786977775
N           96.91468654748070       -1.26694577921526        0.59032969531474
H           93.89321809253859        0.17859880075126        0.11406630698478
H           93.86975399958094        2.54870973859993       -1.04927222090686
H           95.75225909430195        4.27253126858579       -1.84388590003596
H           97.65813932251019        0.86141672182412       -0.25139774601199
H           99.57055030283927        4.06044123951722       -3.64916643661179
H           99.64789218630689        6.33376489924242       -4.61596786221697
H           99.05016051462162        8.52538798623889       -4.33065514622670
H           97.46609186289292        7.84166407294178       -1.25332510611786
H           97.39969567639953        5.56638990032240       -0.27617028952698
H          101.12010628620079        4.28887733952298       -1.53198416520299
H          102.94116395523001        2.43605629639508       -0.83889794971562
H          102.81406028463276       -2.58788145038087        0.70199787310411
H          100.92311330407300       -4.32346099787696        1.44542692697327
H           99.05480327019167       -0.70238010794157        0.34385275656785
H           99.42153458305054       -4.08170014653866        3.58420798858112
H           99.36930464066396       -6.38375360868645        4.49733220046124
H           97.64089926708337       -9.00815880025895        2.89342984047871
H           96.95644395611912       -7.64009055587504        1.18951401988915
H           97.01895652078277       -5.34706293272352        0.26978494335498
H           95.57859388456684       -3.98544324870309        1.97762237778784
H           93.76812590978619       -2.12420054191806        1.26804549682757
C          213.80084899754772       -0.03009885901359        0.09989329467091
C          213.17770884438002       -1.08488931936027        0.75447341952179
C          213.81586274711319       -2.17927147389125        1.40283427907838
C          212.84343312348997       -2.98489002641903        1.92531548736899
C          211.57959196645797       -2.40227165209769        1.62333870968082
N          211.83212707731428       -1.26624734699703        0.90757075753197
C          210.30985326408029       -2.88123684078125        1.96643316079732
C          210.25779707620902       -4.12185799765049        2.77720543879385
C          209.60470086695767       -5.25620133295786        2.29311483076348
C          209.55363505033125       -6.41981526779947        3.04447980256110
C          210.15464288312850       -6.45847691202204        4.30054451577255
O          210.12585760009532       -7.57605201738980        5.07127282213949
C          210.80807529634217       -5.33214322040909        4.79725138614939
C          210.85953458658088       -4.17725770971921        4.03691229442723
C          209.10424832521608       -2.27586769151450        1.60225247383036
C          207.79906354380756       -2.74624326981102        2.03053378142757
C          206.89209597787575       -1.91550941727019        1.47605817675344
N          208.96829917236835       -1.16826167103333        0.82248023010854
C          207.64442916833281       -0.93395384504253        0.71898429215846
C          207.02425589924258        0.09776586303189       -0.01379550700579
C          207.67317546417365        1.11601383594739       -0.73645748227071
C          207.04239563777455        2.12701093034543       -1.50902853823201
C          208.01911937115591        2.92115849631277       -2.04281664666812
C          209.27767436978027        2.42506941680033       -1.60280917505991
N          209.01650182678134        1.32765300465263       -0.82515300331993
C          210.54584028711969        2.93165423165758       -1.90682394519164
C          210.59534253810008        4.15581519726649       -2.74135267043908
C          209.97924898412995        5.33527943863515       -2.31469630260291
C          210.02221441226217        6.47927258898123       -3.09159037069325
C          210.68125089272303        6.45677621576133       -4.31944651612485
O          210.69974925933843        7.59540005222733       -5.05898315649497
C          211.29804103224478        5.28784153192304       -4.75946141266653
C          211.25567757709538        4.14872900303904       -3.97082131947710
C          211.75251873231957        2.36473105729884       -1.48132276351382
C          213.06383585266610        2.93515696039661       -1.74724357764591
C          213.96405463975694        2.10227576551578       -1.18672586514343
C          213.20365528620519        1.03030051200291       -0.56913792347895
N          211.87556086269814        1.22715749904828       -0.75727191221024
H          214.88605299330828       -0.04499765684987        0.11766628056162
H          214.88347693162439       -2.32382120269075        1.44990671051756
H          212.98364076471071       -3.90732523700078        2.46515323001359
H          211.11378452175958       -0.65109391033361        0.54032455767167
H          209.14749692249197       -5.23167377133074        1.31022846846685
H          209.04962619525205       -7.29998579733384        2.65984560834796
H          209.64139230089927       -8.29102905346161        4.63712693764697
H          211.26657373254466       -5.37469867414253        5.77748892482069
H          211.35394022230395       -3.29665663807988        4.43180048914434
H          207.62238563841692       -3.58727264916112        2.68128398540798
H          205.81761000663229       -1.93755386006398        1.56362800050545
H          205.97648314735309        2.22154325558983       -1.64008158311562
H          207.88278897703307        3.76935053152522       -2.69364246150582
H          209.73142636908528        0.75469876883788       -0.38896202084953
H          209.47913831994447        5.35854088516270       -1.35284085784618
H          209.55152547724404        7.39635378470686       -2.75943035101879
H          211.18408496236373        7.47062361402206       -5.88615894981691
H          211.80629366535726        5.27348167678739       -5.71767844362796
H          211.72355695487090        3.23567153201833       -4.32175587133596
H          213.24568606757234        3.85615381720914       -2.27753276250941
H          215.03965404452822        2.18373862603839       -1.16810261281775
C          106.95452070986825       -0.11920252868637       -0.11127744741186
C          105.72638084067211       -0.10723669609358       -0.10674011478686
C          104.38209724304915       -0.08785103747404       -0.09648638769410
C          103.15869235227296       -0.06071641568141       -0.08323902021187
C          108.29882307753482       -0.12542971763970       -0.11021013549754
C          109.52274109630939       -0.12115200042057       -0.10460989142010
C          122.97347452762610        0.03234384986218       -0.03388720762944
C          121.74468553615760        0.02603049689142       -0.05390951653637
C          120.40187464050773        0.01988610017369       -0.07182782603059
C          119.17749603029699        0.00787982529579       -0.08840828647636
C          124.31629016871570        0.02869191040925       -0.01728253875620
C          125.54082397803184        0.02953830220616       -0.00471918178096
C          138.99148655955477       -0.04403095595134        0.07043602038351
C          137.76261035512556       -0.03227063746073        0.05944694798763
C          136.41994581307196       -0.01793603329396        0.04390333242493
C          135.19551286227315       -0.00599245893078        0.02878662143251
C          140.33434653399726       -0.04824599685370        0.07991794576594
C          141.55887004338592       -0.05610611261081        0.09053110456276
C          155.00694897786428       -0.08972749425115        0.14949730291039
C          153.77801386204092       -0.08721751408325        0.14531096646630
C          152.43529914816273       -0.07875703000213        0.13542387423366
C          151.21081199516146       -0.07576870626836        0.12009851055754
C          156.34970810440780       -0.08733370494627        0.14523301990698
C          157.57424036764252       -0.07953198466277        0.13851725464841
C          171.02016343527325       -0.01894860323528        0.02595797826841
C          169.79131463891204       -0.02438944247093        0.03268068883824
C          168.44860654907075       -0.02681665868580        0.03839604043521
C          167.22403836863339       -0.03107184967653        0.03980379780526
C          172.36288060074503       -0.01647887393502        0.02049530619289
C          173.58742490766753       -0.00975963668206        0.01531379739183
C          187.03391027275472        0.04243132840643       -0.06699969858341
C          185.80503966999473        0.04017890964945       -0.07361335072594
C          184.46220676270573        0.03747913962902       -0.07427031175017
C          183.23770290821309        0.03279267052914       -0.07537946748841
C          188.37675493616899        0.04763962377516       -0.06145142051747
C          189.60119465070153        0.05467605611054       -0.05416688304948
C          203.04972707935622        0.15344047441548       -0.06621725635370
C          201.82186136112770        0.15815410103140       -0.07784540211687
C          200.47705965726027        0.15862031907375       -0.08661496846000
C          199.25342815570320        0.15243455583266       -0.09145261561434
C          204.39458086321838        0.14048825644151       -0.05308917946535
C          205.61780817808139        0.12191543219464       -0.03491918221975
C          110.92790735583728       -0.11284630132592       -0.08966002578121
C          111.56671689373924       -1.21886173662019       -0.68220174809900
C          110.92805935173423       -2.31616182571160       -1.31544119704781
C          111.90127430471516       -3.15285832931289       -1.78964981270955
C          113.16337729968635       -2.59392151467864       -1.45093328423505
N          112.91005015861448       -1.42470906208180       -0.78453321206732
C          114.42889396452165       -3.10609511463075       -1.76364082397134
C          114.45797946673966       -4.40366007277232       -2.48292572827108
C          115.02943969337886       -4.49635075614985       -3.75246930168707
C          115.05377937342861       -5.70425536939609       -4.43199055382422
C          114.50908912539883       -6.84151754319676       -3.84007481751772
O          114.51390715939638       -8.04494695082808       -4.46863041176243
C          113.93876805539628       -6.76355221880871       -2.57077963258417
C          113.91207293106984       -5.55173881019079       -1.90357269896885
C          115.64549640696147       -2.49528663865936       -1.45561540370398
C          116.94133928876042       -3.08532846085370       -1.73903213381589
C          117.86603594127757       -2.21658893449021       -1.28018747980255
N          115.80509802335418       -1.29790044175789       -0.82603160141061
C          117.13371064242541       -1.10328563577995       -0.70995806397321
C          117.77392729953505       -0.00232707973057       -0.10493515363976
C          117.13461151852752        1.09221646079752        0.50955451029139
C          117.77338090287446        2.17539017574464        1.16644941774173
C          116.80037346817555        3.00747942962121        1.64914630446469
C          115.53841073514295        2.46069472993321        1.29075218373837
N          115.79179904501817        1.30113115464100        0.60701782856067
C          114.27288164630225        2.97743323130672        1.59404716758532
C          114.24122401823458        4.26437498535561        2.33144298573417
C          114.80927013166742        5.41663621838517        1.78244595284490
C          114.77897450442006        6.61773644342981        2.46863810757126
C          114.18248023951662        6.68057160654648        3.72670818513948
O          114.17456644685046        7.87374885830867        4.37439181220596
C          113.61546464609597        5.53892604025341        4.28853542980880
C          113.64366506252259        4.34206553160548        3.59011198825204
C          113.05606146568110        2.37854728919786        1.26194578463351
C          111.76109721747595        2.97990202443415        1.52479663368812
C          110.83619234943122        2.11741550897689        1.05476531985859
C          111.56752500826283        0.99556822940827        0.50039336956466
N          112.89663672560827        1.18233807730529        0.63161641290360
H          109.86027096139783       -2.43724887081480       -1.40110400618059
H          111.75871900358763       -4.06983812857263       -2.33766945080099
H          113.62594803051141       -0.79794022520619       -0.43237643376818
H          115.44248832982261       -3.60922941761980       -4.21945350423690
H          115.49285118086121       -5.76847065208355       -5.42179997693815
H          114.93658378729006       -7.98796387660631       -5.33609669635012
H          113.52353470155568       -7.65670864620139       -2.12054627886850
H          113.48055620089985       -5.49502112983675       -0.91042482395821
H          117.10085895301120       -4.04253110706378       -2.20836116435415
H          118.94064218707307       -2.30209262710538       -1.30419308617733
H          118.84100394799405        2.29082099394179        1.26130886796384
H          116.94302476580449        3.91371474167242        2.21471721257515
H          115.07589002396556        0.68288095483719        0.24017592993245
H          115.26069948160404        5.37227491872149        0.79755542471059
H          115.21129871981648        7.51425336108538        2.04177615787415
H          113.73155724600018        7.80697680476824        5.23096632467515
H          113.15599162226201        5.59121318302219        5.26974710324304
H          113.21300520690653        3.45131819993366        4.03371623949594
H          111.60264796819027        3.94002270284505        1.98849260709250
H          109.76213167379700        2.21183704623433        1.06293804550518
C          126.94426056885300        0.01753431772785        0.01393173134192
C          127.56585587991948       -1.08522667865125       -0.60442510985657
C          126.90943942224824       -2.15750636937663       -1.26147404375230
C          127.86887092353010       -3.00301205146708       -1.74835318061524
C          129.13950941562592       -2.47468250582650       -1.39377337298924
N          128.90525296799521       -1.31347337761070       -0.70631671198251
C          130.39642072603152       -3.00631662736074       -1.70859281548985
C          130.40395962540677       -4.29181246838717       -2.44965272871934
C          130.98039243300741       -4.37393292454421       -3.71768046585172
C          130.98448345892322       -5.57019605638548       -4.41787176391003
C          130.41439704384356       -6.70649428873838       -3.84837371625410
O          130.39870362810240       -7.89871429027216       -4.49768941988307
C          129.83908289424986       -6.63913416760669       -2.58071007812196
C          129.83252077088650       -5.43864379192914       -1.89286616814267
C          131.62303146652030       -2.42511998227633       -1.38377706746723
C          132.90850050474413       -3.03626497415490       -1.66915606919306
C          133.84751105506970       -2.19253611454107       -1.19291792688013
N          131.80250511685603       -1.24053538533017       -0.73553598312983
C          133.13402261077445       -1.07336154926475       -0.61056328430393
C          133.79217476160338        0.00839294892247        0.00980317292462
C          133.17066574767651        1.10764311763978        0.63433484018924
C          133.82696645192539        2.17417899218417        1.30076157667095
C          132.86755482715907        3.01880484056740        1.78920726807722
C          131.59702359373586        2.49601945466875        1.42587142600078
N          131.83140423360550        1.33806487832298        0.73285607782190
C          130.34008426338767        3.03062414587624        1.73552485369572
C          130.33201016294703        4.31447045973837        2.47908465262149
C          130.91598703825537        5.45919727432760        1.93088171677215
C          130.90825135295927        6.65852516286763        2.62067493820945
C          130.31873092075026        6.72704620143917        3.88174452729873
O          130.33307272039016        7.91823728485343        4.53291497349229
C          129.73620941672584        5.59289022017445        4.44284067553964
C          129.74191306578030        4.39774400990589        3.74079840676670
C          129.11333774178411        2.45345027532882        1.40310514327890
C          127.82810964177747        3.06902371005757        1.68003801068077
C          126.88910195403093        2.22586836453673        1.20266083861223
C          127.60234545913282        1.10265590134490        0.62811100478440
N          128.93387631473888        1.26765728193363        0.75734314504316
H          125.83999969027016       -2.25747221279036       -1.35322793720435
H          127.71140095215736       -3.90647016659478       -2.31443480293185
H          129.63119056498880       -0.70742268871748       -0.33881591991784
H          131.41335323529248       -3.48721775916563       -4.16709069025255
H          131.42742751253957       -5.62604370203028       -5.40646099895088
H          130.82756480829772       -7.83533948204891       -5.36169077468685
H          129.40410405702659       -7.53155625688423       -2.14799713884039
H          129.39688926201222       -5.39046429353140       -0.90106576877361
H          133.05173748139563       -3.98947798467421       -2.15167454307887
H          134.92034628036518       -2.29869088647400       -1.21284230741670
H          134.89629214376262        2.27084305397535        1.39742387500258
H          133.02495271512964        3.91796490077586        2.36210630051035
H          131.10558228565191        0.73551754290122        0.35942736012743
H          131.36228025456282        5.41040920995756        0.94386069772912
H          131.35298854921481        7.54925192398352        2.19444861593140
H          129.89369044126076        7.85604301177470        5.39168091436202
H          129.28232178691292        5.64953916381553        5.42640200121874
H          129.29937975385215        3.51266610455004        4.18404439662581
H          127.68500701671773        4.02460630381770        2.15787476907661
H          125.81644180365409        2.33476916238580        1.21695772675476
C          142.96238795251637       -0.06358015244461        0.10078746405845
C          143.58520867840662       -1.16185839235693       -0.52423288838138
C          142.92948105029441       -2.23080234307882       -1.18755249204259
C          143.88957210220747       -3.06494163043825       -1.69240403922601
C          145.16011151314345       -2.53439462371926       -1.34077587380403
N          144.92489813212489       -1.38273426064121       -0.63746287209870
C          146.41794034430805       -3.05560897108992       -1.66856021986551
C          146.43098648279795       -4.32236937413234       -2.44110109478759
C          147.00893979067129       -4.36630405631125       -3.71048013170520
C          147.01956576784690       -5.54225390809785       -4.44403221696009
C          146.45474587648542       -6.69683070197739       -3.90696713913257
O          146.44549412811108       -7.87044642915533       -4.58944059504763
C          145.87862030251620       -6.66784234546293       -2.63820593644442
C          145.86546102123765       -5.48715413146003       -1.91679327760890
C          147.64325027735640       -2.47845278523004       -1.33123507180434
C          148.92952306810821       -3.08711782228755       -1.61838698576108
C          149.86685879567827       -2.25249081338913       -1.12317265119551
N          147.82044071539772       -1.30351275448339       -0.66543672019898
C          149.15155645457787       -1.13955668619359       -0.53131280484831
C          149.80761716294433       -0.06166769165329        0.09753728719587
C          149.18441135532140        1.04068167566164        0.71496043412498
C          149.83884541119048        2.11274230385601        1.37424004608869
C          148.87830900827967        2.96682506117003        1.84381800511401
C          147.60912445247865        2.44293924980770        1.47769041010475
N          147.84511327910067        1.27519874178657        0.80211842158591
C          146.35157334080051        2.98509102871736        1.77205069051315
C          146.34413185759323        4.28779454976739        2.48191931425579
C          146.93343084249145        5.41437723902114        1.90232218161655
C          146.92662798686158        6.63366886128594        2.55597546173876
C          146.33261730483801        6.74111717359997        3.81223563930787
O          146.34736886828458        7.95125450733004        4.42742620818591
C          145.74572235272595        5.62539872540173        4.40487571264407
C          145.75066581068268        4.40972171956106        3.73880721929586
C          145.12590055652956        2.39971703516168        1.45089581449933
C          143.83890989278169        3.01373589984985        1.72274650095697
C          142.90203583682481        2.15731611798139        1.26529937922807
C          143.61835985914041        1.02930337218129        0.70388472059331
N          144.94941792208579        1.20273638552991        0.82475537722301
H          141.85989196275025       -2.33536403454337       -1.27226805460479
H          143.73231151823245       -3.96243779686313       -2.26794709024199
H          145.65073776935537       -0.77657765155047       -0.26992110078434
H          147.43824500051574       -3.46522408322507       -4.13412642468761
H          147.46355863251935       -5.56808755760792       -5.43339335118662
H          146.87416150385474       -7.78058791829942       -5.45118999455438
H          145.44826362662323       -7.57437239335844       -2.23093767864057
H          145.42968407673030       -5.46942405035691       -0.92405683554338
H          149.07395523084611       -4.03356333444216       -2.11371334823751
H          150.93963287205295       -2.36021643203042       -1.13749363902625
H          150.90766806340216        2.20738311547896        1.47807515988918
H          149.03385754198257        3.87281486054575        2.40638596573890
H          147.12016326123754        0.67108214185312        0.42950967032900
H          147.38336837226566        5.33487911139620        0.91893726734991
H          147.37540364228045        7.51011516011019        2.10507184673903
H          145.90455419396153        7.91602790522552        5.28595177359636
H          145.28894539754415        5.71240081429628        5.38488383915957
H          145.30509374515918        3.53926862976222        4.20723644977680
H          143.69284849654682        3.97644217386979        2.18511093435480
H          141.82893089986135        2.26104751773449        1.28340877384134
C          158.97771914594639       -0.07791055084909        0.13199798672514
C          159.59973312489049       -1.17401468542803       -0.49760465079276
C          158.94253678809210       -2.24883749384360       -1.14986558160574
C          159.90152482466397       -3.07915675516168       -1.66299683845160
C          161.17294767394378       -2.54005986795073       -1.32794248164694
N          160.93925291750162       -1.38727575785923       -0.62602181638928
C          162.42983596153292       -3.05519289300958       -1.66877128283043
C          162.44035812249493       -4.32716042205304       -2.43257662794220
C          163.00326654267167       -4.37831827028265       -3.70839259363149
C          163.00965750022027       -5.55969036963634       -4.43327803040195
C          162.45561849616081       -6.71234422153022       -3.88110474912533
O          162.44230497390183       -7.89091643611604       -4.55488175457408
C          161.89483195878285       -6.67621355917857       -2.60567339923256
C          161.88583815611207       -5.49029336862245       -1.89292908682083
C          163.65538475400987       -2.46749263959528       -1.35108929447718
C          164.94221055354532       -3.06771474652813       -1.65290491970335
C          165.87979996641803       -2.22275007803468       -1.17599447250824
N          163.83261891816818       -1.28757099993018       -0.69409199818693
C          165.16412687303460       -1.11244338956343       -0.57961772867175
C          165.82059416158125       -0.02758130165791        0.03674505453510
C          165.19817081007724        1.07000351541628        0.66340247984202
C          165.85422498670960        2.14516320190122        1.31599721425395
C          164.89440546717398        2.99110091364565        1.80152207614350
C          163.62394743314994        2.45935139314293        1.45159708642603
N          163.85861659451345        1.29492532993081        0.76982505056514
C          162.36667630449634        2.99252610654350        1.76309990352607
C          162.35873897320721        4.29253211333928        2.47765780657960
C          162.93602847732643        5.42501555769378        1.89750629802457
C          162.92823649745719        6.64141438296738        2.55653365440566
C          162.34526860163319        6.74004573770122        3.81867114766727
O          162.35873148736542        7.94755323280139        4.43900941669899
C          161.77023010905404        5.61843652696733        4.41182079001058
C          161.77608761047128        4.40571992398474        3.74046880067989
C          161.14108691812245        2.40004013812674        1.45485369250091
C          159.85352495295666        3.00694741208478        1.73969909808920
C          158.91684472166324        2.14490020524570        1.29255213922610
C          159.63374769126025        1.02034729034263        0.72500811561628
N          160.96496581418859        1.20170479679008        0.83128804032041
H          157.87266974377613       -2.35980511236371       -1.22194498997752
H          159.74282371442806       -3.97927383658664       -2.23401968305024
H          161.66581827758009       -0.77586316761484       -0.26876721704598
H          163.42369465950176       -3.47877987855537       -4.14401119489760
H          163.44174700727046       -5.59117526372095       -5.42772824612134
H          162.85867511351717       -7.80553135566206       -5.42308552914968
H          161.47280269739028       -7.58126469353873       -2.18659971547850
H          161.46188577876237       -5.46675337520067       -0.89520758092978
H          165.08714970902449       -4.01590343128379       -2.14474981220226
H          166.95308199260606       -2.32212177620542       -1.20491339545379
H          166.92370022577518        2.24705264693633        1.40520158118709
H          165.05154402877687        3.89650861259105        2.36457511332499
H          163.13263831337761        0.68642788287425        0.40647091532090
H          163.37702963867122        5.35248493417753        0.90955347575082
H          163.36769200446921        7.52239381482648        2.10530647206430
H          161.92312452319462        7.90621031443065        5.30093675937864
H          161.32189233753815        5.69861586820780        5.39629408356521
H          161.33981978441264        3.53068857045636        4.20912980109550
H          159.70683981058971        3.96944035368159        2.20231683329494
H          157.84341986343875        2.24266442881515        1.32134684815803
C          174.99088126775095       -0.01049422799660        0.01266704152340
C          175.61297235733343       -1.11155380982435       -0.60809789431273
C          174.95639831081002       -2.19180438383025       -1.25185737794953
C          175.91596007726105       -3.03337530793405       -1.74524965267909
C          177.18692337057954       -2.49444565360816       -1.40819193683473
N          176.95259378806762       -1.33075726950306       -0.72492866864061
C          178.44382555691891       -3.01967968863987       -1.73341857248050
C          178.45211342000042       -4.31276368029640       -2.46094621181342
C          179.01666050243634       -4.40675065086582       -3.73345006298120
C          179.02198912962382       -5.61163939571596       -4.41878729949523
C          178.46513373059562       -6.74454727915145       -3.82981254680293
O          178.45168153970806       -7.94500452884536       -4.46379700177160
C          177.90117063968503       -6.66517348294329       -2.55773421711308
C          177.89331991485975       -5.45635055820345       -1.88478863521131
C          179.66953657940732       -2.42618456684026       -1.42765551572237
C          180.95673830700579       -3.02817688612580       -1.72427463021224
C          181.89398482504447       -2.17249827861624       -1.26621084158893
N          179.84634126163724       -1.23551380281012       -0.79000652190916
C          181.17777127219921       -1.05575518034914       -0.68255734011942
C          181.83413497856282        0.03425287711655       -0.07519954020228
C          181.21218679832950        1.12899014376649        0.55687917886986
C          181.86911756203742        2.19872508607168        1.21758024884396
C          180.90994067989402        3.03556930659852        1.71972277382813
C          179.63884880961129        2.50516844627444        1.36995590184383
N          179.87269458582335        1.35016986062863        0.67187940402930
C          178.38167333001260        3.03134330797944        1.69305301951706
C          178.37172976495364        4.31220735459024        2.44137505563518
C          178.94750866054326        5.46239716560320        1.89592520726982
C          178.93842577697237        6.65800885636146        2.59215907527007
C          178.35570784206263        6.71734817758220        3.85686240218874
O          178.36872868246664        7.90503541730236        4.51440005489502
C          177.78094628110404        5.57780488939528        4.41508177729864
C          177.78799814117264        4.38646154847909        3.70671037950780
C          177.15597302524088        2.44641136629850        1.37077752328172
C          175.86922073577301        3.05470431972742        1.65638996477126
C          174.93176328401657        2.20376253676053        1.18996801334387
C          175.64748616313341        1.08291210538079        0.61374505750248
N          176.97885239978282        1.25762986261859        0.72977424776061
H          173.88667286409208       -2.29946040204409       -1.33070441477024
H          175.75830670437287       -3.94076987798129       -2.30494549263659
H          177.67868560044499       -0.71815969370833       -0.36874212344833
H          179.43919050271938       -3.52291702223226       -4.19818631356998
H          179.45574590980905       -5.67685823956461       -5.41087214651383
H          178.87182659365368       -7.88982662172022       -5.33260663164639
H          177.47615253381733       -7.55493345897864       -2.10990853161847
H          177.46680662763686       -5.39857779268939       -0.88953957126169
H          181.10250712847599       -3.98373612335819       -2.20135517641295
H          182.96741403885298       -2.26929223629281       -1.29840344736380
H          182.93880234040773        2.30245779764071        1.30199434948402
H          181.06819702650930        3.93417368284077        2.29325040203270
H          179.14617820374494        0.74338427133588        0.30675200628627
H          179.38824492139258        5.42094432751330        0.90607850743010
H          179.37697431370484        7.55290219882927        2.16824692077748
H          177.93436966671680        7.83624590522342        5.37522362664788
H          177.33215861133516        5.62731649103051        5.40137265910458
H          177.35171334729105        3.49712803760120        4.14765331108206
H          175.72408998300082        4.01144335049566        2.13130736343204
H          173.85860580459021        2.30601834571159        1.21256767312997
C          191.00481464733866        0.05784738591124       -0.04180680114322
C          191.63669653556548       -1.04640388209039       -0.64627092909817
C          190.99033159419190       -2.13679412456028       -1.28353957887016
C          191.95756549424044       -2.98123903097245       -1.75621595348468
C          193.22348401555200       -2.43377540377808       -1.41296314678170
N          192.97817890769034       -1.26233365555780       -0.74693886082357
C          194.48516673207649       -2.95879856837346       -1.71803517755245
C          194.50605910850277       -4.26221006115021       -2.42642746550048
C          195.08757591151175       -4.37288931073752       -3.68999523776327
C          195.10542731855924       -5.58743790821149       -4.35776347563337
C          194.54390918917019       -6.71340514506638       -3.75998665418900
O          194.54257900955866       -7.92294130146165       -4.37679052043645
C          193.96257241115106       -6.61736458732953       -2.49693746540643
C          193.94258203441984       -5.39905434671867       -1.84152674793985
C          195.70585358906524       -2.35480694022241       -1.41021797245503
C          196.99832316145350       -2.95639758759270       -1.68509376089909
C          197.92792823436412       -2.08728120535041       -1.23721137499994
N          195.87161500617876       -1.15218607462914       -0.79417075064018
C          197.20212747720896       -0.96258918012703       -0.68105468939955
C          197.84748373239879        0.14492048368520       -0.09653448376303
C          197.21636185234559        1.24767132468062        0.50971821057209
C          197.86367333752639        2.33516546421180        1.15148036055611
C          196.89720422757492        3.16925172560244        1.64331740348735
C          195.63051802926918        2.62004317256895        1.30549392199600
N          195.87459302507409        1.45780516019339        0.62350299351407
C          194.36880817887644        3.13568281385430        1.62724610244228
C          194.34648259536195        4.42140343384116        2.36720200813894
C          194.90572186186938        5.57540791938166        1.81288015899714
C          194.88492929208871        6.77469813246950        2.50261687620184
C          194.30681679869065        6.83401299162975        3.76941224693706
O          194.30801763152684        8.02543275208588        4.42029851328741
C          193.74816938536512        5.69073051200936        4.33628231515511
C          193.76696812060078        4.49565181644127        3.63448571166723
C          193.14841128668414        2.53623788866699        1.31113836521592
C          191.85640493518687        3.13573102697176        1.59214294439346
C          190.92640318544090        2.27619946271541        1.12669101710166
C          191.65178202667894        1.15797056890555        0.55729728643442
N          192.98157811134868        1.34273536983763        0.67647930861277
H          189.92181041884820       -2.24911461456662       -1.37181288840093
H          191.80860216436218       -3.89614327293850       -2.30600401754149
H          193.69837374374302       -0.64246408680549       -0.39137537639305
H          195.51363630332631       -3.49455068714435       -4.16186221938822
H          195.55261612866741       -5.66564708044490       -5.34292266290822
H          194.97447177942826       -7.87864082656025       -5.24044601816918
H          193.53385334525530       -7.50179761602480       -2.04213321457422
H          193.50270043189093       -5.32840478549681       -0.85294295206863
H          197.15236597181590       -3.92046326127650       -2.14204674222383
H          199.00200670729956       -2.17932305638970       -1.25989589844810
H          198.93245737447600        2.45110546024296        1.23142888089478
H          197.04744164235379        4.07828529610300        2.20237644488652
H          195.15365392046274        0.83754871391720        0.27012802343524
H          195.34272074929089        5.53393640946798        0.82138092277138
H          195.31080161720902        7.67248116441319        2.07193852508276
H          193.87971986240765        7.95575477389310        5.28408490569441
H          193.30269345350786        5.74028774155080        5.32406874735147
H          193.34313722225104        3.60355778236257        4.08196818373179
H          191.70308684237261        4.09310595815510        2.06318665152319
H          189.85245503384144        2.37044573164371        1.14675915673363
