219
 energy: -345.645311275853 gnorm: 0.000383478378 xtb: 6.5.1 (b24c23e)
Zn          25.79627425592825        0.04648362693545       -0.08998316914068
C           22.38957074095538        0.14441467594909       -0.24186299927288
C           23.02853317365819        1.33402980071617        0.08696753292302
C           22.36478461124389        2.56949419737180        0.39620410557495
C           23.33038517892497        3.47741466335133        0.68563625437949
C           24.59735809603296        2.80966438765495        0.54651131822413
N           24.37857005341603        1.51158230531127        0.18839619800247
C           25.85134752734042        3.39079384535521        0.77038405186869
C           27.08346519628773        2.73805432480536        0.66511467939155
C           28.36754756185365        3.35791633100383        0.84236261497480
C           29.30671951214183        2.40033497515962        0.63311737822298
N           27.26794878516287        1.41911348179549        0.34396688948188
C           28.60746558410717        1.18811428326675        0.32197903247387
C           29.22930644941442       -0.04364879321312        0.03137801501419
C           28.56548438492678       -1.24557125198626       -0.28916773860495
C           29.22278549474585       -2.48142627016892       -0.59852394575092
C           28.25161310787744       -3.39221218231313       -0.86321735780000
C           26.98936593573184       -2.72233552626513       -0.71166951725915
C           25.73527153222672       -3.30650781341584       -0.91654479663073
C           25.70710709692109       -4.74903391469482       -1.26910303458386
C           25.19313358159432       -5.16287066685044       -2.49600641191804
C           25.16462133014579       -6.51337380558362       -2.83248016111006
C           24.59574349456061       -6.94491233694981       -4.15742807235916
C           25.64999560802524       -7.45095765484846       -1.92810355904760
C           26.16486318085662       -7.05334839470043       -0.69604952298753
C           26.69493764323030       -8.08304355670282        0.26515396332473
C           26.19340543186765       -5.70216150288952       -0.37362971449916
C           24.50260997671506       -2.64874720560804       -0.82106706877113
C           23.21282749097330       -3.26269741488372       -0.99472518101504
C           22.27996817767782       -2.29492217103832       -0.81134844327881
C           22.98673898465620       -1.08084690110222       -0.51343894082353
N           24.32955813555148       -1.32872788845347       -0.52321881558330
N           27.21898203979748       -1.41629879334651       -0.36769228609190
C           25.87425412390970        4.82552804919853        1.15502692439943
C           25.40647459338241        5.79930586048945        0.27350375732281
C           25.42438418168139        7.14282235212098        0.63101071150898
C           24.94373066165504        8.19459358760035       -0.33223054361990
C           25.91056461373758        7.50947526586563        1.88291701598539
C           26.37938436647781        6.54947264823162        2.77416306018826
C           26.87865386438259        6.95247570718279        4.13554101074293
C           26.36104380718855        5.20880881392571        2.40352916562635
H           21.30480197401862        0.17209927023820       -0.27806641036168
H           21.29517296966180        2.71066941100232        0.39628958191021
H           23.20103846778737        4.50724756729753        0.97805179770692
H           28.52746486164039        4.39665113606124        1.08300665695408
H           30.37962099889383        2.49946629238225        0.67877581923656
H           30.29158942825827       -2.62457352604941       -0.61476721944001
H           28.37674886910109       -4.42427253706230       -1.14888003834735
H           24.82874333278565       -4.42201477027067       -3.19938054888727
H           24.88741193505912       -7.96816864898600       -4.39366669503533
H           23.50491026100318       -6.89678128193652       -4.12775127805639
H           24.93985521338870       -6.28684116250424       -4.95630194054744
H           25.62869134067194       -8.50557476980188       -2.18314606129625
H           26.86952650301080       -7.64654794301910        1.24844940981406
H           25.99105601285948       -8.91022120073827        0.36746386235622
H           27.63923494919903       -8.48841977959386       -0.10459015600753
H           26.58001582989487       -5.38061371685721        0.58730709182991
H           23.04671740273734       -4.30474068913163       -1.21669134311523
H           21.20613591628341       -2.38547262904225       -0.86292542381141
H           25.04142269202304        5.50209853654884       -0.70361215354068
H           24.42397583411318        8.99441972793826        0.19623546780687
H           24.26994976900372        7.76521579739953       -1.07374495293768
H           25.79476892543086        8.63386793445663       -0.85770121150504
H           25.92401822286185        8.55691994079895        2.16647243322827
H           26.05358702029340        6.94034291115207        4.85154955587141
H           27.29484173155074        7.95987981004921        4.11469993283576
H           27.64384489218422        6.26090474862223        4.48881225310471
H           26.71280898971668        4.45009108739573        3.09417442941983
Zn          63.03231237281182        0.04682058308446       -0.06582882647722
C           66.43789604207660        0.17064441912307       -0.22206625548377
C           65.79442761018120       -0.48494708349431       -1.26496575540679
C           66.45316650087325       -1.13175175116318       -2.36514346774451
C           65.48414731722777       -1.66972599133963       -3.14743025189129
C           64.21999703150766       -1.34923094938725       -2.53930377012708
N           64.44393561332676       -0.63582166075809       -1.39827899889979
C           62.96408230548634       -1.73275231201191       -3.02480859515537
C           61.73496176091775       -1.44974735296855       -2.42109634836936
C           60.44853104272370       -1.80103735459503       -2.95630000700232
C           59.51328852140643       -1.32911577434902       -2.09310365325098
N           61.55576194040248       -0.76517547641579       -1.24821853217677
C           60.21712206126493       -0.68139428975363       -1.02507264962837
C           59.60023443246587       -0.04828780988260        0.07312824667838
C           60.26807620424536        0.60540945109068        1.12829890579409
C           59.61579267004739        1.25308925913683        2.22857888550892
C           60.59059752188912        1.76502397634473        3.02249582898333
C           61.85018280553827        1.43007923962268        2.41702770686201
C           63.10656155332786        1.79258985580769        2.91317427970157
C           63.14133558029129        2.53624310430376        4.19850049624336
C           63.65274826485920        3.83111597646688        4.24850797394760
C           63.68997461600893        4.53165534418896        5.45087208112013
C           64.25734572048064        5.92511717604976        5.49073312891665
C           63.21576095231143        3.92429802823010        6.60797326697692
C           62.70324289165303        2.62920409721280        6.57490378350708
C           62.18552515718115        1.99283800597170        7.83670821851599
C           62.66588039355972        1.94193880854824        5.36790560225939
C           64.33628795880945        1.51660379342280        2.30267469789816
C           65.62852764614796        1.86036427202490        2.83445033236185
C           66.55722062410359        1.41149964503214        1.95333233422143
C           65.84556672467883        0.77891238203998        0.87826575466659
N           64.50396206601332        0.85616604868883        1.12076348926080
N           61.61538009661637        0.72993658106009        1.26334645358686
C           62.93549396939249       -2.50717438384704       -4.29230581836734
C           63.39266881079404       -1.93330148127462       -5.47800521588451
C           63.36913015391197       -2.65415286945518       -6.66664666273850
C           63.83808327498167       -2.02348940300164       -7.95015940593460
C           62.88791302360433       -3.96048485201902       -6.66300601861292
C           62.42978836333491       -4.54760294522291       -5.48780569246704
C           61.93564169284323       -5.96918938347998       -5.48850738473613
C           62.45380179414123       -3.81495092855222       -4.30548662822700
H           67.52237611245471        0.19971199378711       -0.26490619807847
H           67.52205673029765       -1.16972307979708       -2.50669229513734
H           65.60937438475943       -2.24287792154224       -4.05220471968222
H           60.28448371172416       -2.32978734427694       -3.88148136420526
H           58.44014965244087       -1.40444469117761       -2.16865808935618
H           58.54757526608201        1.30879602869996        2.36625177560328
H           60.46988028298951        2.33112678412989        3.93213295956582
H           64.00873244809530        4.30002554209664        3.33757071082877
H           63.96348773323594        6.44099909904170        6.40476332821959
H           65.34829378943313        5.88380565638916        5.45541438126809
H           63.91468258453907        6.50482765315039        4.63277298021527
H           63.24426797277572        4.46386074181735        7.54912975603241
H           62.01846858976815        0.92506718809425        7.69585996685157
H           62.89301638665938        2.13324987450983        8.65515453679255
H           61.23919335556579        2.45433138799717        8.12691994047862
H           62.28119487422460        0.92854555891503        5.33105747549104
H           65.79905968593768        2.37011694850194        3.76922379315081
H           67.63128929259759        1.48917410015822        2.01913174802552
H           63.75384046484077       -0.91063761792706       -5.47001306739429
H           64.35586550404061       -2.75347314732172       -8.57318380041334
H           64.51035351236661       -1.18880154465555       -7.75130445246974
H           62.98149797953342       -1.64559331250516       -8.51301626494147
H           62.86989287979222       -4.52715434330454       -7.58836193897587
H           62.76423995291420       -6.64990497917625       -5.27967368399231
H           61.51523292104366       -6.23427833091671       -6.45881912243349
H           61.17499957831027       -6.11619804255287       -4.72143140425564
H           62.11035691410861       -4.26583588090277       -3.38075395274250
C           30.63359546596033       -0.07178358154345        0.05179372912743
C           31.85842659730003       -0.08922035221582        0.06181589412784
C           33.20072449686144       -0.10391306738193        0.06972516904426
C           34.43174902435182       -0.10993200888186        0.07068393094122
C           35.76937536205583       -0.11404311667297        0.07172733488504
C           37.00046004563333       -0.11507342937598        0.07107126570882
C           38.34265944009081       -0.11466332426729        0.07035996518986
C           39.56781343112031       -0.11139986203389        0.06873803018250
C           49.26010891946928       -0.08915555334616        0.09809547522793
C           50.48488232954112       -0.08759944589942        0.11229872811687
C           51.82777415732691       -0.08432406555453        0.12522366681678
C           53.05848756914214       -0.08417120690939        0.13477977356558
C           54.39685536140152       -0.08045514196656        0.13877008392650
C           55.62752413313085       -0.07755510280774        0.14009731289339
C           56.97060166897215       -0.07133858738613        0.12738612157368
C           58.19514292471586       -0.06188138472932        0.11119124215833
Zn          44.41356083318522       -0.10250551149063        0.06526708493886
C           40.97192927544287       -0.10879562168195        0.06660905853579
C           41.61419575408831        1.13956367439624       -0.06584496455915
C           40.93561817489049        2.39713643841129       -0.17148613433961
C           41.89083153042637        3.35394203435866       -0.29791774684588
C           43.16265441707044        2.68730648905818       -0.27751594382236
N           42.95738235252716        1.34190616437772       -0.12516583564455
C           44.40727810616992        3.31827751039004       -0.37649435191377
C           45.65435208118941        2.68859567440065       -0.30366502925606
C           46.92439662708735        3.34355064640247       -0.44730059513652
C           47.88299945910610        2.39123863132548       -0.31406880662971
N           45.86422517033868        1.35025865004939       -0.10281779755671
C           47.20846488663708        1.14532539412893       -0.09934293591834
C           47.85518888547973       -0.09366251456226        0.08560225270078
C           47.21317344329054       -1.33710865998946        0.25596839086359
C           47.89126080776550       -2.58167753894351        0.46742136734780
C           46.93600344067949       -3.54069416332018        0.57434979626321
C           45.66464086014103       -2.89034701866464        0.42174026546723
C           44.42027188316758       -3.52750155086064        0.47263503339941
C           44.42392534315805       -5.00374541498372        0.63725089240884
C           43.85494681503943       -5.58859686496533        1.76684898238395
C           43.85247334074055       -6.97139330345340        1.92180447679415
C           43.25478846395043       -7.59160175701178        3.15591104633698
C           44.42278919856586       -7.76884302248123        0.93515231285879
C           44.99338001312479       -7.19958163098981       -0.20037177901979
C           45.61760984434581       -8.07535159264992       -1.25311902165037
C           44.99393498486546       -5.81684411879288       -0.34215039276418
C           43.17319724047636       -2.90046505520052        0.38046959231701
C           41.90371023241244       -3.57173754345036        0.39298128256901
C           40.94495424704066       -2.61643457229332        0.28354860344053
C           41.61902959086059       -1.35538375763442        0.19207872706770
N           42.96298786965003       -1.55368923159179        0.24720700687753
N           45.87005328935814       -1.54884220807371        0.23952369149663
C           44.40408630941929        4.78958974065076       -0.58092201642402
C           44.96451817674158        5.63581644169746        0.37426526428089
C           44.96177083130576        7.01417650551101        0.18601603139393
C           45.58362092048478        7.91968267580392        1.21469615295170
C           44.39791821197076        7.54331402528242       -0.97061825457192
C           43.83498129790638        6.71126470913683       -1.93430050140516
C           43.24696732658658        7.29437460324107       -3.19093077350934
C           43.83980860874896        5.33550862917373       -1.73333153624037
H           39.86510718321941        2.52493377636519       -0.14565732208816
H           41.74872098772281        4.41904017836200       -0.38566147150436
H           47.06334161229988        4.39577575328230       -0.63653257569425
H           48.95337123372452        2.51283816733795       -0.36401304327148
H           48.96147121722798       -2.69823909188902        0.53117522949666
H           47.07728110492128       -4.59445908953441        0.75312972619140
H           43.42325445439546       -4.95617483280466        2.53497285143777
H           42.94249128449236       -8.61817217625640        2.96383999180036
H           43.99402138800806       -7.60472767334540        3.96011975913504
H           42.39297631866400       -7.01817906723568        3.49852530595892
H           44.42039318027344       -8.84805516891365        1.04907458842932
H           45.70869070244124       -7.54274712704794       -2.19974416252349
H           45.02172352209240       -8.97510359127191       -1.41014340432745
H           46.61665405133377       -8.38295657247807       -0.93605912617023
H           45.42227972137645       -5.36163410581138       -1.22850429226219
H           41.76504668946950       -4.63842967647338        0.46510640567635
H           39.87483385515989       -2.74759299073728        0.25871148818606
H           45.38830438836597        5.21271532609503        1.27854009414012
H           45.12128192966480        8.90672007308209        1.19517949239287
H           46.64947053629012        8.03901208863417        1.00678432564979
H           45.47913638145548        7.49978240395849        2.21539285172977
H           44.39370886667916        8.61786654100493       -1.12227760575407
H           42.78399744285360        8.26088870770959       -2.99002375400312
H           42.49885173182432        6.62586126334470       -3.61722266731993
H           44.03367586960567        7.44354759336551       -3.93411344064415
H           43.41484671851364        4.67586456723008       -2.48208364900468
