288
 energy: -466.975549532783 gnorm: 0.000719232111 xtb: 6.5.1 (b24c23e)
Ni          42.61592236291568        0.07555937889575       -0.22415509773579
C           39.26551707403274        0.26494061797377       -0.72252094465427
C           39.90677800651372        1.37494507206216       -0.21279750739211
C           39.22596241984969        2.57483912388233        0.16685796307344
C           40.16971132056870        3.42527341141260        0.63424674464020
C           41.43126045043319        2.75611406283257        0.50734417844556
N           41.25494744431499        1.48584459487017        0.01679610124735
C           42.65481440234034        3.35029210554555        0.78674783909119
C           43.86507918555490        2.69535134501529        0.60206416423743
C           45.13898474529979        3.33173650150799        0.74679047187527
C           46.07832212298714        2.39469583030364        0.47344270187562
N           44.02416680451157        1.37932511419179        0.23090192147798
C           45.37716028792917        1.18676634740503        0.17523161051894
C           46.02205221082153       -0.03141879203458       -0.05736108714743
C           45.32488998181930       -1.22515855234560       -0.26489249155871
C           45.97081430078738       -2.49182734646642       -0.39833346390011
C           44.99310734141699       -3.40728974562283       -0.60048008283126
C           43.75205417767280       -2.69364236078461       -0.60361126304335
C           42.53277650035884       -3.28017402517808       -0.91263769684203
C           42.49863703059195       -4.73992042982637       -1.18084541120674
C           42.20004083770806       -5.21287887566790       -2.45669006351243
C           42.17379762424104       -6.58019193750127       -2.71456101252791
C           41.83461799402397       -7.08248772405296       -4.09198533147331
C           42.44474152486573       -7.47295766990741       -1.68323892616031
C           42.74495612471350       -7.01476118916511       -0.40275730196442
C           43.05189470319900       -7.99661763931831        0.69559122591147
C           42.77333436205017       -5.64678570701812       -0.15794762675631
C           41.35566614992826       -2.55184433872793       -1.02389899008500
C           40.09622728965800       -3.12137396440221       -1.40426206571131
C           39.19009988699315       -2.11607457888588       -1.38950256578504
C           39.88951462930685       -0.93972653119267       -0.97123340416607
N           41.21856753192964       -1.21128164116946       -0.76234283469805
N           43.96840748652313       -1.35199021693788       -0.38032555140998
C           42.67962456306257        4.75679247314031        1.25796212805085
C           42.19848957826202        5.78227935847373        0.44532474578251
C           42.22766829393563        7.10201828657229        0.88283800566476
C           41.73111245031187        8.20936316034701       -0.00706209456051
C           42.74198748996622        7.39145800937862        2.14330453170805
C           43.22755960756335        6.37881597235484        2.96517768710155
C           43.76308563636947        6.70165470418775        4.33393025150039
C           43.19521966031638        5.06281643515491        2.51636027688461
H           38.19747333239077        0.32939128656032       -0.89526740913704
H           38.16021846122529        2.72226082642763        0.09245526097748
H           40.03675480761867        4.41925759979032        1.02937006130854
H           45.28439572460388        4.36696522058931        1.00883368159314
H           47.15169828222644        2.49464469392246        0.47808929441499
H           47.03649021836586       -2.64451644212985       -0.34113388322548
H           45.09355977252172       -4.46901208167034       -0.75592563099916
H           42.00438197632468       -4.50643515196894       -3.25596757395105
H           42.26125192172819       -8.07102039389112       -4.26232544101543
H           40.75030136736347       -7.15534767962589       -4.20339806032552
H           42.20766639409155       -6.39986156538473       -4.85596216267274
H           42.42443840163499       -8.54037439879917       -1.87792983737416
H           43.02581160054132       -7.51221328632726        1.67153918815808
H           42.33269034905292       -8.81670213671693        0.68984851454269
H           44.04756305499605       -8.42080601159081        0.54853557042043
H           42.99710151891158       -5.27604831231432        0.83631730606941
H           39.93765060613906       -4.16007148077256       -1.64457439148364
H           38.13634883758140       -2.15220471667413       -1.61614145797002
H           41.81572050603331        5.54609684906536       -0.54153199676756
H           41.27053840346615        9.00280049983736        0.58214621416602
H           41.00229047591009        7.83410938438309       -0.72558072082403
H           42.56633808850856        8.64154861094463       -0.56294167423243
H           42.76645372660894        8.41998154018088        2.48857682104590
H           42.94698461167597        6.70685398391097        5.06011683822699
H           44.23208518486030        7.68583715681183        4.34464553286398
H           44.49457133075894        5.95793564385448        4.65041865975976
H           43.56113520017110        4.26311493617055        3.15099705054683
Ni          90.60310274702901        0.14123352800918       -0.11932607842070
C           93.95269494463165        0.56009698667396       -0.46545258508335
C           93.30147234576715       -0.23097895095989       -1.38894741320437
C           93.97187523662843       -0.92197060522233       -2.44752820257865
C           93.02126261714585       -1.60189668904759       -3.13022521386911
C           91.76597731287907       -1.29948643658567       -2.50700771154442
N           91.95272904540276       -0.48140795363259       -1.42021555743879
C           90.53886028147473       -1.73832059173920       -2.98599376377412
C           89.33415332709595       -1.39134708817483       -2.38948833845695
C           88.05506309291249       -1.72183346451641       -2.94082994211854
C           87.12290171203827       -1.20695386128842       -2.10388473755947
N           89.18540847821096       -0.66865633162013       -1.22753194632995
C           87.83366906622130       -0.57345979169482       -1.03909224316359
C           87.19903698565368       -0.00332918796829        0.06715038403293
C           87.90376132040527        0.54740275688655        1.14027187631581
C           87.26669597421447        1.04358631567812        2.31843725503373
C           88.25046943068902        1.50347877397321        3.12777005661304
C           89.48643921041445        1.29812265867109        2.43486635689083
C           90.71030062652220        1.75653080454986        2.90193420762488
C           90.75530175407627        2.43059652711192        4.22397752546892
C           91.06090937377935        3.78697041049210        4.31072896473174
C           91.09883637457988        4.42443275862871        5.54720702613202
C           91.44554513379967        5.88631758368358        5.63299116831710
C           90.83292866264073        3.69218733610324        6.69926436118897
C           90.52596772373539        2.33559390094430        6.62800659093772
C           90.22493948909148        1.56448052537469        7.88474243323981
C           90.48553121736767        1.71054769686568        5.38708865704748
C           91.88327580973879        1.64760065843136        2.16700343945885
C           93.14820826486385        2.16472969574172        2.60057003444873
C           94.04788419131630        1.86116270501969        1.63616264458115
C           93.33866549771480        1.13415760738441        0.62796797416978
N           92.01058813306329        1.01752227531805        0.95405965063801
N           89.26122489846512        0.69625660468221        1.21711749250688
C           90.50478665095906       -2.57537125892148       -4.21054245362775
C           90.96322958914318       -2.06643321100437       -5.42477588178517
C           90.92739128671157       -2.84635659906062       -6.57556432777116
C           91.39976341940203       -2.28518398684307       -7.88956478619094
C           90.42923636764185       -4.14401593902493       -6.50458680550349
C           89.96637900589272       -4.66535173777811       -5.30018458923921
C           89.44886449107831       -6.07674501701541       -5.23161905090021
C           90.00520351673201       -3.87548044609735       -4.15601227572456
H           95.02042216310791        0.70460515330705       -0.58286790800840
H           95.03595773477396       -0.89022376889436       -2.62015320580496
H           93.14553644181647       -2.25148835644740       -3.98133449410133
H           87.90156830345141       -2.26505629015670       -3.85890262895645
H           86.04861403681703       -1.25023879478951       -2.18256954630085
H           86.20227827390687        1.03283934061081        2.48922356602838
H           88.15769181204436        1.96081631887763        4.09923825399042
H           91.25330921092586        4.35011788407011        3.40406241475382
H           91.02445395800376        6.33452308047578        6.53301852851512
H           92.53062628295210        6.00855394215742        5.66695243795081
H           91.07191715705402        6.42483585119327        4.76167318492998
H           90.86267139895179        4.18346429303972        7.66645141598284
H           90.25233175342052        0.49064714447733        7.70048571004173
H           90.94640101169927        1.80653690364245        8.66621183495188
H           89.23001410134928        1.82508454140336        8.25236162672717
H           90.25637325998609        0.65285365835772        5.31736224451354
H           93.31427545051910        2.68700287320551        3.52870864903358
H           95.10294132708326        2.08193504661360        1.60188669248400
H           91.33401163013289       -1.04828817556068       -5.47051079144871
H           91.86141906127622       -3.06239268757349       -8.49919394159322
H           92.12134987358755       -1.48319549533858       -7.73336510590676
H           90.55218843903886       -1.87756070312056       -8.44528585436804
H           90.39979775975338       -4.75617412820512       -7.40016648122681
H           90.27534092766400       -6.76646004112157       -5.04548323390822
H           88.97476326214263       -6.36207748521499       -6.17102954849536
H           88.72606773067349       -6.18682783336571       -4.42302633138799
H           89.65726187873780       -4.27336352401043       -3.20901501442651
C           51.22272283325644       -0.10084026303882       -0.03463738662234
C           49.99469097610290       -0.09460564613413       -0.03606940302347
C           48.64993501138468       -0.08030812724061       -0.03954699000913
C           47.42645322945267       -0.06280871563043       -0.04428480416751
C           52.56741057707401       -0.10430304004399       -0.03212045082946
C           53.79110845907105       -0.10150416261368       -0.03085874897843
C           67.22278005106143       -0.02103212768366        0.06784966450449
C           65.99447428283401       -0.02239340495705        0.06179455359440
C           64.64988834847159       -0.03095908276955        0.05165890483487
C           63.42632288464111       -0.03771487460872        0.03670700446551
C           68.56744447725222       -0.01967742458694        0.06835924697493
C           69.79102954288389       -0.02025753563510        0.06439346158624
C           83.22475582246257       -0.02427778728054        0.16560602244940
C           81.99734267122111       -0.02843231023825        0.17383022970492
C           80.65129813182274       -0.03235129995926        0.16948403827398
C           79.42833235138723       -0.03576105757024        0.15515013832644
C           84.57076876857236       -0.01783075282773        0.14366625301844
C           85.79333187292164       -0.01431558464805        0.11535496974622
Ni          58.60895404188284       -0.07341621591112       -0.02797096131780
C           55.19499815072524       -0.09427661569613       -0.03342097794300
C           55.86181923296149        1.13440915879151        0.00822021724987
C           55.18860837566546        2.39101501928151        0.08739345105355
C           56.13839182250119        3.34961979788741       -0.04018941452521
C           57.38850512216549        2.67329092506916       -0.20416602798016
N           57.21124581429523        1.31033446446208       -0.12747330052980
C           58.58917222317648        3.31637061753092       -0.47525095101120
C           59.79903868841135        2.64055444805001       -0.56157259035002
C           61.04478673799058        3.26753279204656       -0.88153386731465
C           62.00681531024576        2.32410458384621       -0.73445296302019
N           59.99181008332007        1.30793662877084       -0.27400453416599
C           61.34492083533679        1.12245389938359       -0.33902412464202
C           62.02256455085355       -0.04807912806461        0.01671893033638
C           61.35284488416760       -1.23057583457421        0.34675716094940
C           62.02217010417379       -2.42712691032381        0.74523882630456
C           61.07211891468298       -3.38850562027572        0.84693245563644
C           59.82597661212180       -2.77615667301949        0.50123689404610
C           58.62842937717879       -3.46846842437340        0.37865977786737
C           58.63881292705635       -4.94087619063736        0.55203854428683
C           57.89586695732763       -5.53404916040215        1.57138104355977
C           57.90352241252825       -6.91493302272200        1.73894313353372
C           57.11937451299881       -7.54628121147966        2.85740969009420
C           58.65829651280692       -7.70218846763267        0.87501732376733
C           59.40242627078889       -7.12482054343798       -0.15014919792752
C           60.22500456346629       -7.98752965435214       -1.06861078273150
C           59.39213566312333       -5.74313525289036       -0.30438235449716
C           57.42205007954591       -2.83752804831078        0.10470344223546
C           56.18095530996678       -3.52665238405979       -0.07439923810167
C           55.21882992502034       -2.57805719726317       -0.18328585172190
C           55.87620995913765       -1.31468005902343       -0.08343270202840
N           57.22754309282910       -1.47568269332350        0.05016478112885
N           60.00522028877954       -1.43651877416185        0.23952273658315
C           58.57890920479885        4.78545911423575       -0.67554054320453
C           59.29993482546336        5.61646738610794        0.17989945224542
C           59.28872519120125        6.99604316831906       -0.00019135822684
C           60.07909001434411        7.88377601678049        0.92272941793803
C           58.55613050027334        7.54021852029814       -1.05006205599097
C           57.83232864944819        6.72291206035255       -1.91421394202530
C           57.06072965649359        7.32387744993500       -3.05787566878638
C           57.84525470131356        5.34632929058924       -1.72057309401159
H           54.12510961354894        2.50879035202032        0.21908760840512
H           56.01409350031783        4.42005856190278       -0.02326817213148
H           61.15848259001996        4.29685103061669       -1.18008937494745
H           63.07132506111047        2.41858348502815       -0.87629105024002
H           63.08339584374812       -2.50679148809436        0.91757815254090
H           61.19392496127566       -4.42070676902563        1.13205219664145
H           57.32049764086192       -4.90885309556145        2.24535430163034
H           56.81767503896407       -8.56079417583462        2.59635122075280
H           57.73397783082305       -7.59568373778169        3.75920679678299
H           56.22901977298376       -6.96018450112232        3.08612230775467
H           58.66461924668969       -8.78021361021965        0.99935428304344
H           60.41159751129096       -7.48095742143250       -2.01553931670767
H           59.71991421741545       -8.93326144580708       -1.26706462252419
H           61.18878353899162       -8.20944557523195       -0.60466858357518
H           59.95674886744698       -5.28183195894952       -1.10722930683105
H           56.07018941047782       -4.59804091321695       -0.11187781791519
H           54.15694310182769       -2.70681046821356       -0.31776648620944
H           59.85642206327455        5.18140179403165        1.00285058113364
H           59.67511913331175        8.89613876344088        0.93066395411780
H           61.11833432542054        7.93345691733671        0.58975815818428
H           60.06894670037449        7.49105732948958        1.93986172970010
H           58.54505129459903        8.61551217716415       -1.19582186853761
H           56.63537065826139        8.28694482303601       -2.77418247879202
H           56.25536617950080        6.66139655363790       -3.37516429080724
H           57.72538541788824        7.48517989073379       -3.90971370587001
H           57.29389961753412        4.69785315971273       -2.39260564597943
Ni          74.60954397136476       -0.03566331078181        0.04778522437156
C           71.19507299236841       -0.02435283651558        0.05572504685257
C           71.87293069667766        1.19857536289309        0.06600492744143
C           71.21007364086395        2.46235218708377        0.11458526837308
C           72.16780331335714        3.40952369628457       -0.03532095833829
C           73.41275931363302        2.71907283266904       -0.17956116714699
N           73.22389831253197        1.35967753640213       -0.07291015458725
C           74.62056801686199        3.34767188441459       -0.45166506918897
C           75.82672844161428        2.66218005069784       -0.50966796183640
C           77.08143674578750        3.27695024975398       -0.81883614210810
C           78.03479837667241        2.32978441939343       -0.64387280981460
N           76.00585636314815        1.33261512320093       -0.20127459093838
C           77.35886586365677        1.13713191689845       -0.24433718666953
C           78.02295564738850       -0.03597602613737        0.12525802758089
C           77.34224452078101       -1.21371209944569        0.44563760412859
C           78.00037140851627       -2.41878053636372        0.83769557873714
C           77.04345380773759       -3.37495541654626        0.92009726456973
C           75.80381790990749       -2.74995751271088        0.57329976582758
C           74.60061678662618       -3.43220499184811        0.44749815641158
C           74.60321048579077       -4.90696194685020        0.60178593333511
C           73.86929280262464       -5.51112290347916        1.62102310048406
C           73.86982763534958       -6.89465106655590        1.76658721735277
C           73.09504270046257       -7.53798520059848        2.88474609109236
C           74.60828007744593       -7.67305256320905        0.88090009101080
C           75.34396814872437       -7.08439696938998       -0.14395588646808
C           76.14948969425039       -7.93733094992077       -1.08635205534576
C           75.34121719664178       -5.70040920297149       -0.27594985150012
C           73.39744224847878       -2.78947336878856        0.18956873889466
C           72.14737714905466       -3.46682438439624        0.02763372222533
C           71.19293290831459       -2.50923639595821       -0.06671506846044
C           71.86401020477800       -1.25199390322256        0.02032823860698
N           73.21508890204960       -1.42552310714657        0.13794658619171
N           75.99359132235563       -1.40969570337899        0.32553025910947
C           74.62261832845873        4.81266439482240       -0.68108194082273
C           75.33579060663656        5.65697236003406        0.16777792304308
C           75.33610422291946        7.03259464371690       -0.04126745160523
C           76.11843756438689        7.93436532857002        0.87490549819070
C           74.62274445308839        7.55904399379572       -1.11308666021631
C           73.90649267797259        6.72819159883460       -1.97068151946702
C           73.15573563408429        7.30977976713989       -3.13793429603337
C           73.90784227874751        5.35595834078336       -1.74824487649577
H           70.14741929704384        2.59184372130668        0.24202315309271
H           72.05259814852165        4.48107957463618       -0.04457211433729
H           77.20650960692768        4.30143316997460       -1.12917484767854
H           79.10195178461173        2.41564421037949       -0.77054078604509
H           79.05965914441404       -2.50709055158391        1.01763068717087
H           77.15574832695516       -4.41124113357722        1.19411494357431
H           73.30654716806524       -4.89310334142697        2.31205702363526
H           72.80203305067585       -8.55420621450013        2.62059210041055
H           73.71257560661527       -7.58483475834013        3.78466734139667
H           72.19988825875484       -6.96110289734331        3.11829103638535
H           74.60852202674297       -8.75295472254749        0.98786261839072
H           76.31678711208841       -7.42152568989113       -2.03193708966137
H           75.64197712479773       -8.88194772489966       -1.28380456342462
H           77.12258384682562       -8.16187928327579       -0.64360033715407
H           75.89976315823402       -5.22988040528737       -1.07769175211639
H           72.02568804932964       -4.53707145968002       -0.00807526669314
H           70.12809859980166       -2.62798190320109       -0.18616533344630
H           75.87714579253469        5.23601301140062        1.00796197238003
H           75.72940531732412        8.95217127262832        0.84598316276342
H           77.16562000701352        7.95996151940372        0.56483746260690
H           76.07945433089742        7.57005210555152        1.90190359387672
H           74.62081347110771        8.63107047644770       -1.28154767822515
H           72.72809861469118        8.27880522953874       -2.87905969594850
H           72.35416482804666        6.64336644445739       -3.45657319164678
H           73.83500833963117        7.45406487544322       -3.98121457211988
H           73.36218748738833        4.69677251947413       -2.41450369142524
