78
 energy: -136.059921309329 gnorm: 0.000981410009 xtb: 6.5.1 (b24c23e)
Zn           6.49242493498566       -0.00889516576724       -0.00681147625783
C            3.06651845421140       -0.05269175743218       -0.05267235780274
C            3.71274751407853       -0.92206380512852       -0.92480138701063
C            3.06339316623029       -1.82745871712782       -1.83501482909366
C            4.04089406526534       -2.49192161653627       -2.50100943433104
C            5.29846509788828       -2.00075789282533       -2.00483278770622
N            5.06446199131528       -1.05227769627741       -1.05335872460615
C            6.55401218617022       -2.42631369302575       -2.42507691834543
C            7.78593569168749       -1.97726534565846       -1.96549592037553
C            9.06343822185248       -2.44767062197594       -2.42364633976271
C           10.01007665402292       -1.76499653399630       -1.73034019862430
N            7.97935969032078       -1.02032380782986       -1.00617939033831
C            9.31966111499357       -0.87117093887797       -0.84338409657886
C            9.94477522333921        0.02364695389993        0.04974556666253
C            9.27632141014085        0.91094919638944        0.91703237879840
C            9.91995984348630        1.82262204469912        1.82090498886693
C            8.93796180010042        2.49060633692095        2.47853032622816
C            7.68518329079022        1.99259294700672        1.98204127661506
N            7.92853979761627        1.03569047568098        1.03437496854175
C            6.42997459138348        2.41519618113337        2.40272004677223
C            5.19716594370088        1.95707152169655        1.95015686792547
C            3.91473261270514        2.41697273091872        2.41180545968786
C            2.97229203409815        1.72457422147774        1.72406341695194
C            3.66794723790759        0.83382796517338        0.83393393284033
N            5.01227087855011        0.99960683021533        0.99688403790988
H            1.98108286781918       -0.06695008686837       -0.06610979058352
H            1.99462376276228       -1.93107885024339       -1.94087543883487
H            3.93437332505030       -3.24927798900818       -3.26211340095412
H            6.57460996291341       -3.19301959154025       -3.19353744365024
H            9.20589366506447       -3.20405232297694       -3.17953921068769
H           11.08248623899002       -1.85103571615426       -1.80624696404178
H           10.98775976265235        1.92925179899870        1.93016393394543
H            9.04035827473267        3.25364118066336        3.23432840453538
H            6.40999518321043        3.18506979831087        3.16807533330369
H            3.76853019371134        3.17391954030644        3.16672602363577
H            1.89878312637968        1.80016006008426        1.80215563417215
Zn          22.57349138388393        0.01147295273145       -0.00110041419915
C           25.99941998154354        0.07262404913842        0.00013587733409
C           25.35394451238464        1.30292399516493       -0.06120743755159
C           26.00412670928079        2.58475773392889       -0.12464952448785
C           25.02724139846093        3.52498566139932       -0.17198897133485
C           23.76918609428298        2.82853620824514       -0.13718084992247
N           24.00234293808805        1.48653773714771       -0.07099215604709
C           22.51401212055406        3.42684002454700       -0.16370561877423
C           21.28157216080335        2.78621955999577       -0.12757564533115
C           20.00450883443201        3.44332585670630       -0.15182486113236
C           19.05710309593114        2.47244811398305       -0.09948447810490
N           21.08714893527550        1.43295788308619       -0.06214676135051
C           19.74661151211296        1.21400878811730       -0.04391200250778
C           19.12113684405843       -0.04857835720064        0.01354070680716
C           19.78918639803492       -1.28888172499264        0.05945620518529
C           19.14459813063980       -2.57106549218934        0.11407235054878
C           20.12585204933682       -3.50840683934510        0.15244715655234
C           21.37913502576104       -2.80679128108392        0.12204872835028
N           21.13679666134478       -1.46109137748431        0.06419603044558
C           22.63386803691268       -3.40331911398459        0.15072058537462
C           23.86705761595280       -2.76058106702285        0.12601708861418
C           25.14905495376851       -3.41216459983429        0.15993555755790
C           26.09210786115641       -2.43771495721721        0.11864565424613
C           25.39723400224679       -1.17943836304474        0.05852942765453
N           24.05277843130125       -1.41096270071246        0.06535220193808
H           27.08486480329502        0.09161000972022        0.00145017751550
H           27.07299724615030        2.73201182455009       -0.13154444181569
H           25.13452282211726        4.59729163975013       -0.22549077124076
H           22.49419624485459        4.51109409775986       -0.21665681824904
H           19.86286265076325        4.51158596766100       -0.20237921831100
H           17.98475750339733        2.58782031251381       -0.09918032646765
H           18.07669358122535       -2.72277922139792        0.12174758881462
H           20.02260640210158       -4.58134258408601        0.19802175143214
H           22.65308678185827       -4.48784247052507        0.19872899642959
H           25.29452201331937       -4.48017939583404        0.20921953541005
H           27.16553919250115       -2.54678695026405        0.12726182262708
C           15.14665626618467       -0.04320190269932        0.05991202723443
C           13.91918503037575       -0.01676226600607        0.07543737272693
C           12.57421194500646        0.00233518601081        0.07318477240469
C           11.35080579377326        0.02531083994831        0.07045146592965
C           16.49165106874053       -0.05564735934227        0.04667300246538
C           17.71516015665956       -0.06531705216330        0.03115772542249
