189
 energy: -345.501255367315 gnorm: 0.000907831369 xtb: 6.5.1 (b24c23e)
Ni          26.02396324693929       -0.01963938477789       -0.06477540630688
C           22.63338584352617       -0.07076338344112       -0.24256574162808
C           23.29700524797343       -1.27924407174271       -0.21405097243844
C           22.62710691770944       -2.54354686866759       -0.22478715771575
C           23.58416039442871       -3.49032426088482       -0.08617343920471
C           24.84050300584115       -2.80386439710603       -0.01079021298300
N           24.65408181372894       -1.44648149246672       -0.09452038275295
C           26.05952650946172       -3.44325091222277        0.17329672057903
C           26.07776912643140       -4.92203473102807        0.29964699140077
C           25.69641153718191       -5.73074200524958       -0.77056008511728
C           25.71775741972557       -7.11242141152707       -0.65580459891530
C           26.11765352245352       -7.70033239335693        0.54187307187574
O           26.15044132653409       -9.04879305801481        0.69868663133600
C           26.49848157075910       -6.90262847583420        1.61942193877837
C           26.48072653517891       -5.52481661813793        1.49322070045798
C           27.26562909448821       -2.75859018613213        0.22836807323525
C           28.53629577373433       -3.40774904102063        0.34426722453941
C           29.47954161090627       -2.43904953674935        0.26729896223581
N           27.43067852869212       -1.39812731575601        0.09065457243905
C           28.78411233879472       -1.20217479154335        0.10584803718762
C           29.43865346765229        0.02365404099852       -0.04313922974508
C           28.75452601851099        1.23643942464645       -0.16021941547998
C           29.41873799752841        2.49335596116488       -0.29530521874603
C           28.45304411800504        3.44296708248293       -0.31130764501727
C           27.20049478031072        2.76180984965830       -0.18391790124890
N           27.39737732468341        1.40066726247768       -0.11504067319583
C           25.97429902546219        3.41181302531545       -0.14466459156029
C           25.95621971523208        4.89472500338954       -0.16522105020237
C           26.53956683461864        5.62571006899608        0.87239340861337
C           26.52273348511876        7.00913506415055        0.86049176349743
C           25.92467237016477        7.68425198341831       -0.20216822458146
O           25.92909202141211        9.04189879680881       -0.18371313033918
C           25.34369718576745        6.96833851057267       -1.24627143280999
C           25.35879580779615        5.58224447329947       -1.22184994771231
C           24.76508251272752        2.72936805611256       -0.10721145806523
C           23.48601078569575        3.37561203710917       -0.06613454605119
C           22.55090326123875        2.39852814953075       -0.11928643441614
C           23.25877737826204        1.15626343984187       -0.16970926346023
N           24.61488804953195        1.36520174630661       -0.14064213695859
H           21.55119607266491       -0.08667530211717       -0.30009653860677
H           21.55938204274498       -2.66853758831701       -0.31060737713065
H           23.46215503799425       -4.55971549181815       -0.02867706397249
H           25.39651773030176       -5.27422837827497       -1.70727774819380
H           25.42664107400623       -7.73723754695524       -1.49338111859895
H           25.86854583398758       -9.50434187095639       -0.10589176260558
H           26.80433054202897       -7.37352736713818        2.54547101075620
H           26.76840301047625       -4.90341556622828        2.33387911419118
H           28.67835777484898       -4.47058267060946        0.45191196299912
H           30.55223776921837       -2.53759270759659        0.30868398547644
H           30.48731431294827        2.61663621265725       -0.36681257710141
H           28.56768675039929        4.50985221829011       -0.41157031861046
H           26.99595760906100        5.10028071697419        1.70381641906757
H           26.96779909217497        7.57888949111168        1.66682263496633
H           25.48990233232874        9.40683654352403       -0.96365775958100
H           24.88377912916059        7.49765765380968       -2.07391216995746
H           24.91742848495829        5.02618206892060       -2.04151116778416
H           23.33570587728281        4.44093005845418       -0.00063233303204
H           21.47633946804731        2.48975298487582       -0.11524051193872
Ni          63.16481449232042       -0.00462260729873       -0.03321938042370
C           66.55386543203673        0.03229250971904       -0.23283452095644
C           65.88408194033028        1.22769361058177       -0.38855309706127
C           66.54681367185724        2.47774337038822       -0.60184147674325
C           65.58583332612673        3.43071098380450       -0.60247023392033
C           64.33428263004809        2.75963023997601       -0.40607537053974
N           64.52715958657608        1.40607566100358       -0.28367912336045
C           63.11582935214403        3.41656352342127       -0.29265726718750
C           63.09338396744442        4.89761844101684       -0.38842809380150
C           63.44493816742498        5.53593758865363       -1.57746543738549
C           63.42078278752689        6.91907633470951       -1.67177499074006
C           63.04811157820321        7.68065483892211       -0.56673479358093
O           63.01395760794598        9.03734657481318       -0.61413557071074
C           62.69742182384670        7.05433907074904        0.62790180318913
C           62.71782130317991        5.67320945321666        0.71046332183143
C           61.91529022768690        2.74517813857157       -0.10722049545811
C           60.64431939645711        3.40130856671412       -0.04813013771891
C           59.70476750186721        2.42909622002467        0.03104315577388
N           61.75427491508541        1.37829299264614       -0.05204771274972
C           60.40265779558329        1.18320687485830        0.01952488204377
C           59.75118266053813       -0.05345318187388        0.03123005009876
C           60.43938806522934       -1.26966435907233        0.05170285702287
C           59.77964612050641       -2.53591961986315        0.07383024204748
C           60.74884207059111       -3.47690466045759        0.17361170614027
C           61.99896420036714       -2.78084226530868        0.21424917956869
N           61.79721663953459       -1.42249069546142        0.11139494257608
C           63.22701522698959       -3.41523349458212        0.34498575333434
C           63.24931896103112       -4.88749826928200        0.52215786370517
C           62.65848034672783       -5.47579795038197        1.64296567523272
C           62.67686736751180       -6.84851320692523        1.81470711081577
C           63.28388285829168       -7.65721443968564        0.85541817812771
O           63.27978480634827       -9.00051614723031        1.05304034673502
C           63.87309450695398       -7.08469340882390       -0.26942419961117
C           63.85666409908664       -5.70760676215682       -0.42891466718864
C           64.43359952868794       -2.72862084033925        0.29881387601530
C           65.71481428104833       -3.35678125185018        0.43690655001457
C           66.64649234678978       -2.39232718636079        0.25251157789337
C           65.93416316859232       -1.17298959241464        0.02298660315404
N           64.57881012328664       -1.38171394462787        0.07696936583176
H           67.63588048570628        0.04439715322900       -0.29441038490269
H           67.61294463202415        2.59222538911038       -0.71708583579169
H           65.70251164019103        4.49653384619586       -0.71295090591893
H           63.72383916519308        4.94345398658510       -2.44173332103561
H           63.68879593837018        7.41058979097734       -2.60089064206344
H           63.27324051530372        9.36633501771985       -1.48527791759360
H           62.41278538119826        7.65934009658231        1.47984032868761
H           62.45402384521446        5.18568475327363        1.64229691893560
H           60.49889893747244        4.46858315462363       -0.08200283851211
H           58.63287789106840        2.53012218648978        0.08543243441636
H           58.71139975275617       -2.67085898013647        0.02100335713830
H           60.63798272938357       -4.54836904720130        0.20689364814100
H           62.19474968184725       -4.84577363088335        2.39373500795631
H           62.22578104493434       -7.30731964281653        2.68584191677485
H           63.72492391681883       -9.46471851636157        0.33142377467816
H           64.34012376352065       -7.71810790409673       -1.01598985352304
H           64.30440525103799       -5.26408495052948       -1.31133013383847
H           65.86863433518519       -4.40184813404988        0.65138357091900
H           67.72136582342301       -2.47723439654902        0.27437053034458
C           30.84363081722890        0.03815938949148       -0.05439135899420
C           32.06766899168374        0.04309208951118       -0.06185673363411
C           33.41097369452156        0.04727847794219       -0.06586710137897
C           34.64130095622372        0.04824409917759       -0.06715745933486
C           35.97976291157929        0.04623635518889       -0.06651467644116
C           37.21021393695818        0.04483500684107       -0.06509450687398
C           38.55327745755795        0.03908247588030       -0.06452158577843
C           39.77760383333423        0.03421220730246       -0.06409909993936
C           49.41333676970812       -0.06713650056080       -0.00000726739211
C           50.63769362170671       -0.08132475208122        0.01307300901959
C           51.98036932506340       -0.09219802144470        0.02355682959689
C           53.21086429404271       -0.09938191946258        0.02988862572706
C           54.54899714580544       -0.10056281872903        0.03096211972282
C           55.77950166052276       -0.09668095239065        0.03360129978823
C           57.12245362566987       -0.08613747201939        0.03556461920763
C           58.34668491916437       -0.07358513701807        0.03421522464389
Ni          44.59602557932160        0.00080695108099       -0.05829725321223
C           41.18155025740261        0.02785155841360       -0.06559228077263
C           41.86083688072072        0.96892666608802        0.71429480919180
C           41.19936443474435        1.92110314142478        1.54735349640757
C           42.16027109138534        2.74086973220257        2.03906464943197
C           43.40529515667594        2.29022750264017        1.49675113071967
N           43.21326141242715        1.17235748296898        0.71669218328508
C           44.61631765509702        2.94294658996293        1.68850159702357
C           44.62416384545914        4.21854684950488        2.44334446079558
C           45.34846355069480        4.33599003554932        3.63226890188768
C           45.35355979367007        5.52242155166332        4.34379348529086
C           44.63639624724478        6.61818289271692        3.86622501785644
O           44.66751766006295        7.76824542526905        4.58668054298543
C           43.91379488980967        6.51701844128410        2.67946528330710
C           43.90651903893457        5.32110484198413        1.97853674428125
C           45.82018128108535        2.44623604886635        1.20582805028443
C           47.07527084987699        3.11916873204480        1.34438299019997
C           48.02545002280105        2.27679363471021        0.87038637862484
N           45.99569546912980        1.22121805115449        0.60237525282523
C           47.34712282638553        1.09925458985854        0.43290481051678
C           48.01000320175731       -0.04666971561703       -0.01824072369058
C           47.32605673358884       -1.16995621105638       -0.49376098197104
C           47.98178395093905       -2.36078675501905       -0.92957042143125
C           47.02146804008382       -3.16687062892874       -1.44444469013488
C           45.78273062340580       -2.46032237663939       -1.32811876988360
N           45.97671355974321       -1.25007941477760       -0.70141739196262
C           44.57668782510330       -2.91935264201178       -1.84206759559964
C           44.56958008120343       -4.18292144177858       -2.61653208515707
C           43.81674258810845       -5.27505075223329       -2.18382842414054
C           43.81259746498849       -6.46093797361540       -2.90153271525867
C           44.55991125100110       -6.56264405904824       -4.07278719383477
O           44.58147157243540       -7.70334758737851       -4.80838077076369
C           45.31228825695776       -5.47718679345832       -4.51851598185576
C           45.31788330105081       -4.30084739287923       -3.79046134803816
C           43.37693030006754       -2.24528914928524       -1.65382249990004
C           42.12755919378236       -2.66707626586751       -2.20923729743894
C           41.17648243781532       -1.84487895094969       -1.70266660223756
C           41.84901256487777       -0.91631112026124       -0.85215945956720
N           43.19838896748075       -1.13811102690435       -0.85521533023237
H           40.13580937589852        1.94801339962168        1.72169641938766
H           42.04619694023235        3.57465880643404        2.71238580980133
H           45.89713254077163        3.48015195632967        4.00943603525315
H           45.90741540350433        5.61452634777995        5.26998754623199
H           44.13392719378724        8.45942173771811        4.17195663489616
H           43.36067704508372        7.37363752828271        2.30926152485803
H           43.35170877231415        5.24608660432209        1.04982441828286
H           47.20309020551608        4.10931906237040        1.75035629452089
H           49.09189716555625        2.42512643158912        0.81615467276996
H           49.04154525588753       -2.54115422375406       -0.84843029069122
H           47.13212305157958       -4.15380586551189       -1.86305639068750
H           43.24414628730404       -5.20084326873509       -1.26597106195785
H           43.23241548147081       -7.30975574269220       -2.55574802393097
H           44.02709194684468       -8.38923703983600       -4.41253665905729
H           45.88466105336779       -5.56913740379215       -5.43330393373180
H           45.89451157858352       -3.45288242687525       -4.14278541632363
H           42.00366580277247       -3.48531985742218       -2.89966233716064
H           40.11313601994069       -1.85391941620115       -1.88001575502595
