177
 energy: -318.710039852576 gnorm: 0.000799760420 xtb: 6.5.1 (b24c23e)
Co          36.41584591057178        0.03316039507952        0.04995115741332
C           33.05013301119543        0.02466034994407        0.16415385168141
C           33.70057554358975        1.23625825562207        0.06126677361153
C           33.03818509408224        2.50078305314833       -0.04114458478506
C           33.99382430373771        3.45165077545318        0.08715382190012
C           35.23704553035505        2.76557943441168        0.28669965370320
N           35.05571478526191        1.40988599631216        0.19181624487591
C           36.42371672536621        3.38128046587678        0.66666007010021
C           36.42917149373138        4.83402173173092        0.94274790867328
C           35.57522172850298        5.37524936346625        1.90720970211635
C           35.58439448444469        6.73205933020275        2.17527613028242
C           36.44941989719715        7.57901586721314        1.47592487138664
C           36.45964636288875        8.97624416182007        1.74845574866878
N           36.46953948558458       10.10465146090017        1.97368417858230
C           37.30382673110755        7.04335427246400        0.50759737844614
C           37.29318525763698        5.68471611577539        0.24841911669778
C           37.60315949561141        2.66396823209226        0.81050125386143
C           38.83750844780982        3.21830313501797        1.27937081849355
C           39.78679147153847        2.26848910766845        1.09614923303026
N           37.78558727735882        1.35923566297787        0.41492801153818
C           39.12989975191542        1.13740406877269        0.52203267308582
C           39.80153245140587        0.02767404758760        0.00304307199214
C           39.11384485488721       -1.07258971383478       -0.51545745984590
C           39.75048624199957       -2.19101338555756       -1.13529767989578
C           38.78912040097934       -3.12561765443246       -1.33344191723791
C           37.56988979477241       -2.57907657563544       -0.81768012816036
N           37.77066501709243       -1.28735318751855       -0.38752890091563
C           36.39586624472479       -3.29861704923396       -0.64686230635361
C           36.38040482865647       -4.74164340090023       -0.97014913121020
C           35.47599114761621       -5.24568041205763       -1.90835248920802
C           35.46250828176111       -6.59277565433073       -2.22160584298975
C           36.35455026528957       -7.46728640156819       -1.59387591679406
C           36.34400292598138       -8.85437099418056       -1.91404854093662
N           36.33716830053410       -9.97527018102721       -2.17363136015981
C           37.25787703937699       -6.96925810527266       -0.65010666620580
C           37.26972506824984       -5.62000723533144       -0.34586327182319
C           35.23298736845084       -2.69753848920188       -0.17888390691212
C           34.00989167471056       -3.39559787213808        0.09047687382537
C           33.06478376075537       -2.45416028673807        0.32353230458105
C           33.71301499826831       -1.18354098169476        0.20514664507330
N           35.05522237871261       -1.34651797379089       -0.03284311387127
H           31.96743216615814        0.02152889265302        0.20611916584263
H           31.97695797235541        2.62471210521195       -0.18663918019026
H           33.88000057219986        4.52308339563409        0.05524241313092
H           34.91407989310795        4.72011512857777        2.46312590853291
H           34.92350753727827        7.14304227724639        2.92941213600073
H           37.97325081644015        7.69727545524508       -0.03894141611698
H           37.94821486470408        5.27548326176937       -0.51244083993847
H           38.95243731580840        4.20576690215859        1.69574887074309
H           40.84004660035156        2.31745617239318        1.32037958527382
H           40.79883503792732       -2.24077813808075       -1.38158522662338
H           38.88682678793185       -4.09911787193732       -1.78557549614282
H           34.79213486869789       -4.56870929035856       -2.40779074483558
H           34.76271621198590       -6.97465026844549       -2.95568351699394
H           37.94732263655466       -7.64512319248734       -0.15787014108113
H           37.96238111068935       -5.24046685765084        0.39680891359852
H           33.90208051200369       -4.46813519351784        0.09678514249999
H           32.01816271275905       -2.58785799066721        0.54585124259729
Co          58.04252658029715       -0.00617299836902        0.09572635905965
C           61.41572938657529        0.01776158010601        0.29909013509367
C           60.77220064944849       -1.20002104296853        0.26371234816597
C           61.45373891341139       -2.45842071443924        0.27316029729899
C           60.50111980495463       -3.41449528254175        0.37134228438229
C           59.23969312843405       -2.73622880343703        0.44187198672747
N           59.41269380480416       -1.38131779194422        0.31317937268736
C           58.03454252936443       -3.36845463758768        0.71288255012537
C           58.03008835486346       -4.82096119338900        1.00035094227053
C           58.75027715017475       -5.32590891902442        2.08553958115976
C           58.73463405105705       -6.67868236469991        2.37355247148589
C           57.99873053091074       -7.55690706986583        1.57257195218590
C           57.97655622163978       -8.94928383581055        1.86834920205857
N           57.95725842695418      -10.07414534551262        2.11043395627375
C           57.28175400314361       -7.05740020470797        0.48123422553446
C           57.29682596022415       -5.70241138993311        0.20281029009572
C           56.83473831597294       -2.67427232854958        0.75521625526096
C           55.58022675235316       -3.26952391707233        1.10664063025243
C           54.63212290459301       -2.32113120403729        0.91992021695645
N           56.66200171910526       -1.35471386139292        0.40793284028761
C           55.31038500364421       -1.14956097142266        0.46206397493570
C           54.64722911292814        0.00123132131359        0.04282245062349
C           55.32710697743718        1.13671194651131       -0.39222761540460
C           54.66907992246427        2.28765096387788       -0.92561906090646
C           55.63200674966647        3.20920555020280       -1.16374507265646
C           56.87284807504384        2.62609468076469       -0.74847014168157
N           56.67941326087275        1.32993555228800       -0.32832606965879
C           58.06978319551021        3.32204932396892       -0.68151886844009
C           58.09392997593078        4.75452633027074       -1.05588234127149
C           58.89616233120668        5.19012426638065       -2.11313429025041
C           58.91747701741767        6.52413520794623       -2.47810685078659
C           58.13803067191037        7.45323606871365       -1.78253973840136
C           58.15698012990116        8.82695772241678       -2.15565178283506
N           58.17081663390412        9.93660799448093       -2.45977325007508
C           57.33948535566189        7.02343520841505       -0.71857146111001
C           57.31783793623957        5.68658085840222       -0.36339834174643
C           59.24712508233735        2.71901207924710       -0.26063530415122
C           60.48290205699008        3.42160955305414       -0.07371033689102
C           61.41989509808990        2.49209754602167        0.22489801797430
C           60.75595163508262        1.22401117465694        0.21715957918204
N           59.41370168688901        1.37830048998461       -0.02743061229340
H           62.49649822567537        0.02651367383704        0.37602269042219
H           62.52418417070016       -2.57335652660407        0.21251581512619
H           60.62615490774288       -4.48479790575741        0.39758823535665
H           59.31032754033628       -4.64578353309596        2.71732101870205
H           59.28910916085773       -7.06174884609952        3.22221556829623
H           56.71386155242735       -7.73627022052893       -0.14410798539528
H           56.74663690571680       -5.31987433926839       -0.64943049767393
H           55.45358663146209       -4.28172332342044        1.45439654899267
H           53.56674198156932       -2.39262615734378        1.06885056379548
H           53.60686886561432        2.36171033829300       -1.09462455647790
H           55.52291805368313        4.19784680407199       -1.57867194310178
H           59.49357109588929        4.47026799582576       -2.66111524732386
H           59.53605180593348        6.85352649908579       -3.30470023990675
H           56.73853665799825        7.74206390575051       -0.17371480923296
H           56.70631756667973        5.35910145637940        0.46975658549894
H           60.60108735175349        4.48968475574335       -0.15862815433110
H           62.47085100821737        2.62964298714033        0.42311986720813
C           41.20633173089696        0.02418479869818       -0.00801046403684
C           42.42350654122954        0.02471527113597       -0.01636940726162
C           52.02093284592148        0.01151810892278        0.02898160636809
C           53.23614665356711        0.00935689303365        0.03669456932330
Co          47.22044874757658        0.01585115313816        0.00848883131465
C           43.82796100630936        0.02632468123616       -0.02660418755961
C           44.50853781123782       -1.18703227644733       -0.15826701156026
C           43.85908741131379       -2.45619333254560       -0.24115912807075
C           44.81254997528201       -3.35912820829049       -0.57791754206543
C           46.04021177084582       -2.63386519885793       -0.70231480507295
N           45.85106375524608       -1.31086130490647       -0.37967620967263
C           47.22102758225984       -3.17032884189098       -1.19781314327186
C           47.21552263018922       -4.55402170297784       -1.72013227395510
C           46.35992724918849       -4.90847944228344       -2.76629099861599
C           46.35716284846464       -6.19717263145484       -3.26847097734939
C           47.20997961377707       -7.16273942438998       -2.72542104719803
C           47.21047024035138       -8.48977338349917       -3.24107715560292
N           47.21475714402823       -9.56184150010544       -3.65907532399701
C           48.06242844711737       -6.81535490001976       -1.67317388258305
C           48.06465302818272       -5.52306870133285       -1.17996300642736
C           48.40616122895980       -2.44691426845377       -1.21251573367829
C           49.64503884120285       -2.93907573584580       -1.73570970159351
C           50.60142971733254       -2.04997727042472       -1.37411210802500
N           48.59024242104641       -1.22388061913520       -0.61190714805308
C           49.94038063136344       -1.01012220467490       -0.65096976812652
C           50.61105015187722        0.01798707525464        0.01062381510177
C           49.93124423637590        1.05495542614372        0.64885962443716
C           50.57996177579759        2.09595962717334        1.38091876280797
C           49.62352757310806        3.00412674113855        1.69319705215227
C           48.39701247745623        2.51822518995304        1.13703361407509
N           48.58776728544624        1.28957235677742        0.55223085719261
C           47.21672785245162        3.24878157986912        1.08204524144138
C           47.21318394980954        4.64216392281415        1.57776422530341
C           46.34560837829498        5.02452306375592        2.60408030796553
C           46.34801772819421        6.32245450649559        3.08194319796386
C           47.21900485908188        7.26918078830794        2.53457690040359
C           47.22589696140668        8.60563923989477        3.02522084160765
N           47.23236304194007        9.68483934187982        3.42426654051547
C           48.08500425337816        6.89334478475280        1.50337627836523
C           48.08171628575861        5.59210515068098        1.03441624382677
C           46.03992878241758        2.70392150765124        0.58767647448748
C           44.80940822826802        3.42403521741102        0.45817781750937
C           43.85434503886363        2.51124175989658        0.15575363128834
C           44.50675777842036        1.24238521049679        0.08924238985933
N           45.85288972250974        1.37554407299544        0.28173946562444
H           42.80788352377280       -2.61977869362528       -0.06728594926763
H           44.70534618221522       -4.42130928109902       -0.72604309411748
H           45.70707192515757       -4.15888441199212       -3.19902607050091
H           45.69631226894973       -6.46237597959657       -4.08536101014295
H           48.72060341357179       -7.56279707277197       -1.24595208216369
H           48.71755902758790       -5.26138517432399       -0.35499533575075
H           49.75860439958819       -3.84915019431534       -2.30168510963553
H           51.66126487538691       -2.08226331811961       -1.56887477054499
H           51.63233437085858        2.11632651099166        1.61407226961529
H           49.72897568608004        3.92099526721104        2.24977419633847
H           45.67953873576518        4.28946725036061        3.04159943056688
H           45.67750688610713        6.60927679599449        3.88352199104391
H           48.75837980498869        7.62576053636116        1.07383372553883
H           48.74621014733496        5.30789844366764        0.22633031355131
H           44.70052427498930        4.48866214651754        0.58573469836929
H           42.80065921377385        2.66843602955337       -0.00833480208927
