258
 energy: -453.479907047370 gnorm: 0.000284660277 xtb: 6.5.1 (b24c23e)
C           23.38815927566452       -0.07107005452081       -0.00722975060288
C           24.01589705068698       -1.30862958652691       -0.07100676205886
C           23.40565430907919       -2.59413973225990       -0.13748212156284
C           24.40053701311892       -3.52974274000043       -0.18544161200309
C           25.64967698325365       -2.84562758951508       -0.14972648769805
N           25.36652099121484       -1.51225168227165       -0.08111741049762
C           26.92014580102542       -3.40911780375771       -0.17821018885416
C           28.13805925890403       -2.74567560324520       -0.14358372092008
C           29.41813121880482       -3.43075610913832       -0.17825994397164
C           30.36542992464051       -2.47148934136965       -0.12859587286791
N           28.32818341679486       -1.39970983130816       -0.07452878787436
C           29.66024175227773       -1.20390801696406       -0.06368553129146
C           30.31263120515098        0.04558626384503        0.00033291351647
C           29.65886308195346        1.29093561850367        0.06342851818915
C           30.26354969458454        2.57535154000104        0.12899140729372
C           29.26473727774841        3.50835326628982        0.17686316817701
C           28.01984907023332        2.81981148214853        0.14167283102902
N           28.31070065567808        1.48386777444522        0.07320134727264
C           26.75084933461442        3.38418111851348        0.17088058703981
C           25.53164615945209        2.71849282278533        0.13681060540328
C           24.24522117110968        3.39714868544335        0.17191265039302
C           23.30407015728304        2.43315527290904        0.12218228600188
C           24.01638395257568        1.16696005436253        0.05679106888792
N           25.35420265395802        1.37842666505539        0.06771028883390
H           22.30335315151279       -0.08128924614389       -0.00792466568902
H           22.34090423189469       -2.76524604671996       -0.14662660685187
H           24.29286609674021       -4.60141817874617       -0.24073138689406
H           26.05874535914257       -0.77165468993466       -0.04269682734308
H           26.95409562078959       -4.49250635097166       -0.23400165107175
H           29.54124631354774       -4.50102848982337       -0.23311742812144
H           31.43834999070801       -2.58012301712415       -0.13366620828831
H           31.32749861926772        2.75001885743380        0.13789399341296
H           29.36901172696805        4.58023849682874        0.23177086288191
H           27.62108813727161        0.74048349578248        0.03524067763687
H           26.71833383062324        4.46754157880436        0.22662066650773
H           24.11633296736926        4.46690060078437        0.22715343633300
H           22.22995084289621        2.53429018563756        0.12744583536987
C          123.95721559188235        0.06584832602062       -0.01584487999381
C          123.32916859956424        1.28511746207046       -0.23632600539930
C          123.93908898955659        2.55175771264152       -0.46649189943154
C          122.94397505645098        3.47358849219300       -0.63206961255177
C          121.69500452403494        2.79949722426504       -0.50829413864055
N          121.97849525456374        1.48569181062868       -0.27095932715613
C          120.42440009380651        3.35472083913521       -0.60678887292541
C          119.20665400779528        2.70088889554535       -0.48728772463668
C          117.92640623331125        3.37585489887003       -0.60777396879294
C          116.97935263436838        2.43038246903902       -0.43689033492593
N          119.01688111951437        1.37445715020635       -0.24838341090521
C          117.68486428188730        1.18128181934506       -0.21268417464217
C          117.03280322413616       -0.05036534636752        0.00811396645070
C          117.68686199581370       -1.27743685346717        0.22893076297383
C          117.08249450424886       -2.54322535649128        0.45741106167494
C          118.08153656918309       -3.46217738685629        0.62427506142760
C          119.32625759263519       -2.78331160746336        0.50222574859103
N          119.03507648406442       -1.46707739875360        0.26398095207960
C          120.59539581827342       -3.33899219289453        0.60336187803464
C          121.81443084629331       -2.68281647127033        0.48441572286592
C          123.10102728906499       -3.35121452789402        0.60529199628077
C          124.04193481285799       -2.40132530193566        0.43230586959512
C          123.32930087123874       -1.15396287658103        0.20611901021476
N          121.99153650778760       -1.36251405842888        0.24468695417130
H          125.04201868982724        0.07601520198408       -0.01869271469726
H          125.00379553374673        2.72037842731150       -0.49844334477017
H          123.05137809213092        4.52952229871513       -0.82339910775996
H          121.28645659558327        0.75595587673455       -0.13790796839344
H          120.39017095422484        4.42226354356352       -0.79960065177699
H          117.80301894454973        4.43057750894271       -0.79747301023589
H          115.90640423719749        2.53729616697485       -0.45524996140377
H          116.01858934101971       -2.71568429197069        0.48805073261561
H          117.97752943085486       -4.51835844061444        0.81529950426320
H          119.72450552243727       -0.73435348732343        0.13196121776974
H          120.62818428650927       -4.40638730665392        0.79682064910636
H          123.23018443341940       -4.40512798803133        0.79664958856532
H          125.11607964634645       -2.50078752005601        0.44987472261257
C           31.71633470481878        0.06143878917398        0.00134700726837
C           32.94137389513006        0.07215261781420        0.00150863390372
C           34.28360978535596        0.07787068503612        0.00290685360980
C           35.51487784005536        0.07923760510117        0.00425711175717
C           36.85234514552534        0.07740225350545        0.00416552334389
C           38.08367513826092        0.07253275704760        0.00358873426428
C           39.42566977274113        0.06710940026536        0.00267616577201
C           40.65095620398566        0.05791579429204        0.00252428461033
C           50.45741048570871       -0.01673537317540       -0.00566056649297
C           51.68293320401764       -0.01826464932013       -0.00653348813608
C           53.02491032605955       -0.01672346908654       -0.00665580679927
C           54.25647389477640       -0.01270001295878       -0.00636804145276
C           55.59381670508792       -0.00801117055332       -0.00607736728035
C           56.82539596331566       -0.00263158822001       -0.00572258883848
C           58.16738475462321        0.00111039978300       -0.00532915611698
C           59.39292399086410        0.00319083199622       -0.00404516053971
C           69.20480830367532       -0.02021849386915       -0.00222478180612
C           70.43036351879701       -0.01757051680241       -0.00289702559784
C           71.77240522811618       -0.01222124875777       -0.00337731074258
C           73.00399687739727       -0.00635742634389       -0.00408391887917
C           74.34139819481334       -0.00015002519857       -0.00469033263677
C           75.57299833311809        0.00555528627062       -0.00518684106484
C           76.91504732310079        0.01063673214110       -0.00627536803716
C           78.14062105808557        0.01248665908361       -0.00609945907549
C           87.95251655444925       -0.01285467469454       -0.00012172105600
C           89.17805075198815       -0.01041487567868        0.00009512611785
C           90.52002163502078       -0.00497365523525        0.00028151986677
C           91.75156899069043        0.00099724951420        0.00030247847101
C           93.08891001446322        0.00576587103561        0.00035164599460
C           94.32047895405744        0.00993772575112       -0.00029257335005
C           95.66245492262388        0.01188211312904       -0.00150985941667
C           96.88798277168404        0.01025965637829       -0.00199379834772
C          106.69442869581060       -0.06858933148337       -0.00041003959091
C          107.91972116220786       -0.07691855280314        0.00193494206157
C          109.26173770758413       -0.08235548996260        0.00422443642005
C          110.49305016206846       -0.08674292969191        0.00658903458897
C          111.83054059844950       -0.08764086856017        0.00804046091686
C          113.06178856755442       -0.08422548191138        0.01035505132915
C          114.40404466040408       -0.07743314880025        0.01067751687790
C          115.62907517926638       -0.06650469086468        0.00996420499010
C           42.05366666029587        0.05089590377152        0.00161451141583
C           42.70330359245251        1.30088493945900       -0.01310538041124
C           42.09984502682810        2.58603561819961       -0.02720000459430
C           43.10098788981801        3.51912149226515       -0.03921513970108
C           44.34377689727982        2.82814886858192       -0.03287116042726
N           44.05187030067057        1.49181379877028       -0.01698993600834
C           45.61345612944106        3.39616755899162       -0.04129645001946
C           46.84002675698387        2.75005300117524       -0.03541291388058
C           48.10918234208801        3.45607699876723       -0.04540981341160
C           49.07189273725671        2.51084188935250       -0.03530186933567
N           47.05183579130389        1.40560785639151       -0.01976331564809
C           48.38701042167941        1.23135264089480       -0.01938310886128
C           49.05471309712731       -0.01172354372989       -0.00526310648746
C           48.40499320907953       -1.26170623653545        0.01022842056672
C           49.00816226880523       -2.54709517439932        0.02506183934982
C           48.00687548609341       -3.47993087346246        0.03693067086861
C           46.76405870030988       -2.78880935904337        0.02987923700713
N           47.05642101965073       -1.45236703641995        0.01374518101849
C           45.49459061984119       -3.35682273525925        0.03768568787313
C           44.26765248748384       -2.71085546165698        0.03114873001862
C           42.99846970126391       -3.41682775457398        0.04033382125906
C           42.03578068102586       -2.47149938798699        0.03015851298205
C           42.72073673910759       -1.19216391001244        0.01491313347613
N           44.05613394250449       -1.36663159001753        0.01568057635572
H           41.03619359331943        2.76249614712331       -0.02790881038365
H           42.99798870343317        4.59244937682233       -0.05148102137820
H           44.73677862131056        0.74308098331586       -0.00929713354814
H           45.63635270330327        4.48147967979269       -0.05402399816817
H           48.21520789155290        4.52949694275203       -0.05833969346873
H           50.14298800280952        2.63626532968126       -0.03815655189858
H           50.07177664904174       -2.72374152276068        0.02621185338425
H           48.10958344484963       -4.55328687567828        0.04955258936509
H           46.37159332499685       -0.70355937775043        0.00551016931147
H           45.47168080230604       -4.44214272341966        0.05040923288575
H           42.89225152649050       -4.49023380176631        0.05288708299639
H           40.96465176931100       -2.59672874358043        0.03254523464887
C           60.79562808626762        0.00489088033883       -0.00310614865013
C           61.43947479587570        1.25799757353534       -0.01841159746570
C           60.83080192857182        2.54067475955336       -0.03465706920201
C           61.82816959207287        3.47779671803918       -0.04571046608218
C           63.07390455778604        2.79201213651986       -0.03661994302869
N           62.78728012022646        1.45447553416191       -0.02017573521281
C           64.34093574706093        3.36590015902240       -0.04323759352103
C           65.57129817468540        2.72677383458646       -0.03509027822743
C           66.83629803273240        3.44032218561619       -0.04377278652555
C           67.80466757866259        2.50085958211881       -0.03234665410253
N           65.79114814437192        1.38373339674565       -0.01855059683082
C           67.12746288995628        1.21737911982965       -0.01644163765872
C           67.80204729368150       -0.02194369115079       -0.00114797888261
C           67.15810106060600       -1.27500447491853        0.01469542703146
C           67.76668078817754       -2.55775094466908        0.03083644737426
C           66.76927007617088       -3.49478920370907        0.04288976369869
C           65.52354878174505       -2.80894893746684        0.03416931720279
N           65.81028337144436       -1.47139330118338        0.01721645736675
C           64.25658915764063       -3.38287718312810        0.04127248609990
C           63.02615332301784       -2.74381300439660        0.03277387132377
C           61.76114071784875       -3.45732473576051        0.04131902820378
C           60.79280593018049       -2.51782624421029        0.02883919555433
C           61.47008301095005       -1.23441340121970        0.01290034086544
N           62.80641565490439       -1.40081574020935        0.01560760867559
H           59.76644781753538        2.71280204154669       -0.03733337817779
H           61.72082499229325        4.55068859238265       -0.05904753153782
H           63.47495208454836        0.70826996080156       -0.01059478637400
H           64.35828865096425        4.45133399470873       -0.05662573630000
H           66.93601942015134        4.51434297229353       -0.05690002736452
H           68.87501054457600        2.63261935614073       -0.03393324795105
H           68.83102122298040       -2.72995209444572        0.03298421114875
H           66.87651994489765       -4.56768653252046        0.05655240645196
H           65.12263456591975       -0.72515985150123        0.00773949759525
H           64.23925987969112       -4.46830681813378        0.05507975417926
H           61.66133080371517       -4.53133089143421        0.05496022607025
H           59.72245099105163       -2.64952591855126        0.03001027281280
C           79.54338255858897        0.01379962970133       -0.00576651231320
C           80.18758125180725        1.26673645401806       -0.02133666679751
C           79.57921360208920        2.54957754752227       -0.03795687912781
C           80.57677836632286        3.48645868743734       -0.04924785296072
C           81.82238317841946        2.80041648381622       -0.03987789501112
N           81.53542832149687        1.46290513166316       -0.02316137911277
C           83.08943814861185        3.37414353055471       -0.04624359497138
C           84.31976303320178        2.73487079197903       -0.03721516624980
C           85.58489750171205        3.44816466824184       -0.04521260805839
C           86.55306946068991        2.50849750340979       -0.03256974380335
N           84.53927276504238        1.39183350732153       -0.02009495129440
C           85.87557718519322        1.22519028318429       -0.01704510504494
C           86.54980664323705       -0.01425867181556       -0.00103821317988
C           85.90571985082272       -1.26722915369391        0.01425743712103
C           86.51416141817759       -2.55000933565494        0.03082686126462
C           85.51662610517432       -3.48695315112487        0.04167764030083
C           84.27101234549913       -2.80095080350802        0.03214282125783
N           84.55787782180980       -1.46346389515958        0.01569391461628
C           83.00387975239332       -3.37462167956430        0.03826550158738
C           81.77362303062114       -2.73529754864090        0.02941778578393
C           80.50849864630345       -3.44863746768806        0.03746626286903
C           79.54028811223975       -2.50901840662073        0.02529249121194
C           80.21771251537000       -1.22564938442429        0.00986815924509
N           81.55400120283700       -1.39222652572926        0.01260239928999
H           78.51490178136768        2.72194683602852       -0.04072936472995
H           80.46970787639857        4.55937421096933       -0.06286509578284
H           82.22295213954885        0.71656156056549       -0.01332303262142
H           83.10694875102642        4.45957150382461       -0.05992282839105
H           85.68489024566256        4.52215564193544       -0.05867701479506
H           87.62344277036081        2.64002634076387       -0.03337459836029
H           87.57848649207943       -2.72231690212318        0.03384171073899
H           85.62378264776264       -4.55986227035077        0.05514375600594
H           83.87033942662605       -0.71713990254246        0.00580589256637
H           82.98634189837658       -4.46005250713658        0.05171797432204
H           80.40859343633873       -4.52264048771678        0.05070498384626
H           78.46992213847592       -2.64060019202605        0.02630216999204
C           98.29068534836492        0.00473913859830       -0.00275174514367
C           98.94100317456693        1.25437297404944       -0.02070963166337
C           98.33848528557029        2.54003331449548       -0.03840360943180
C           99.34024268393904        3.47232548436294       -0.05295962410379
C          100.58271163268570        2.78059271359106       -0.04443213085268
N          100.28967378202263        1.44434645052699       -0.02480518555227
C          101.85246685830097        3.34792374493333       -0.05426354760748
C          103.07906940905117        2.70133895280395       -0.04572700759504
C          104.34860906679798        3.40664029270174       -0.05719136697000
C          105.31081552559567        2.46088358684776       -0.04279112650667
N          103.28989552605742        1.35708077867861       -0.02520113732327
C          104.62521017989906        1.18195595993576       -0.02280075975620
C          105.29169256542308       -0.06131264830698       -0.00253136164613
C          104.64150126936669       -1.31093346002768        0.01640910904234
C          105.24431058561392       -2.59632693450227        0.03571019094597
C          104.24269396005904       -3.52889787985002        0.04808062446970
C          103.00024665562837       -2.83735894927279        0.03694317387182
N          103.29283056695054       -1.50121829422966        0.01797356245512
C          101.73027534484849       -3.40474012719361        0.04399726509478
C          100.50403062559293       -2.75804082854762        0.03454594694956
C           99.23452096102392       -3.46343514578753        0.04419727763267
C           98.27228251114131       -2.51775323575689        0.03153864583420
C           98.95780093019759       -1.23862543130439        0.01398094887288
N          100.29289170966759       -1.41352529792056        0.01616727128504
H           97.27496060368114        2.71721443821445       -0.03973025108260
H           99.23808560158558        4.54569957702070       -0.06825024621716
H          100.97412520418581        0.69521487494679       -0.01482401244223
H          101.87594904127714        4.43318578541234       -0.07039670443678
H          104.45537768864467        4.47993579495392       -0.07386196800198
H          106.38200681931164        2.58558179538983       -0.04508416065392
H          106.30787433042637       -2.77328337537413        0.03919324259117
H          104.34514084091418       -4.60223723904748        0.06356933759690
H          102.60829905008580       -0.75218997367376        0.00639133070693
H          101.70681377142444       -4.49000904665085        0.05914825352878
H           99.12795206982834       -4.53677965417779        0.05877028533127
H           97.20112525050253       -2.64266004417285        0.03337365839607
