80
 energy: -147.674881700076 gnorm: 0.000318553648 xtb: 6.5.1 (b24c23e)
Cu           5.22508057209326       -0.00920519612788       -0.00984400207845
C            1.80101037003217       -0.05241873171947       -0.05086868281392
C            2.45153733472526       -0.91664566144589       -0.92022983276412
C            1.79984018549386       -1.82093444928596       -1.82796845339755
C            2.77631472419964       -2.48423821758240       -2.49571053942473
C            4.03236171907139       -1.99102243551192       -2.00109493136342
N            3.80432504025021       -1.04223505683291       -1.04759206918645
C            5.28147598541435       -2.41840776735039       -2.42870480541488
C            6.50875903123929       -1.96475260119850       -1.96933547879386
C            7.78348308817633       -2.43308018783600       -2.43332896912577
C            8.73099817116889       -1.74991379746829       -1.74225977374417
N            6.69861693227665       -1.00821319786501       -1.00839350488369
C            8.04086977171876       -0.86022802991087       -0.85314054451799
C            8.67117992165537        0.02803213342909        0.03755266838411
C            7.99826187867462        0.90588205426383        0.90636263788812
C            8.64419932612803        1.81287141269649        1.81099392584998
C            7.66331598833800        2.47843874395145        2.47219805978095
C            6.41215460402247        1.98099211332280        1.97514190153926
N            6.64913336763950        1.02606964369540        1.02319599585300
C            5.16305395031957        2.40644972288699        2.40197266052322
C            3.93548237035238        1.94673514118704        1.94619755983021
C            2.65581534363932        2.40720006084719        2.41122637264476
C            1.71262883228544        1.71689750920999        1.72331378551749
C            2.40840476384711        0.82910379642386        0.83217092683354
N            3.75418253659109        0.99036774318321        0.99027948205923
H            0.71607643344499       -0.06712392171062       -0.06307509914187
H            0.73059546459228       -1.92277339972203       -1.92908685212973
H            2.67253051012603       -3.24176800403707       -3.25680895986113
H            5.30047605135053       -3.18417340864474       -3.19747438872759
H            7.92154465403078       -3.18828865722177       -3.19103097398009
H            9.80360377683068       -1.83140304105344       -1.81904432490310
H            9.71244833930755        1.91710372441768        1.91650943554714
H            7.76370114806303        3.23916052110449        3.23034897493130
H            5.14442240729639        3.17399587989933        3.16899199390398
H            2.51443240429931        3.16285771639542        3.16812508483976
H            0.63903457306327        1.79030124864783        1.80021758870684
Cu          23.86138345511177        0.00862238213290       -0.00333038696694
C           27.28541894712881        0.07256406008449       -0.00496999412814
C           26.63325533181248        1.29600464095043       -0.06606289886672
C           27.28330780724689        2.57657239175651       -0.12945264964820
C           26.30562909123424        3.51535636932259       -0.17608886149250
C           25.05047350168767        2.81611248099724       -0.14124351017159
N           25.28022971644325        1.47290455773832       -0.07508023379062
C           23.80059723946902        3.41846857456801       -0.16907432328593
C           22.57412335848533        2.77221115753617       -0.13466526771461
C           21.29854930559693        3.42924417909342       -0.16258052824659
C           20.35227167578894        2.45760025073367       -0.11201987295980
N           22.38599848715046        1.41772609019459       -0.06848480436076
C           21.04400143879922        1.20202106925114       -0.05361403593594
C           20.41539197425972       -0.05523202246590        0.00700426188985
C           21.08991559372072       -1.28831809446541        0.05970494331055
C           20.44565744139861       -2.56877551789688        0.11933684143432
C           21.42776588903343       -3.50470884215837        0.16171721498650
C           22.67800473358811       -2.80065008586696        0.12859032047517
N           22.43927169641925       -1.45405142755337        0.06569418304967
C           23.92786610951499       -3.40098720860710        0.15832463389470
C           25.15462642136914       -2.75274645661613        0.12947812985988
C           26.43512987165365       -3.40468591526892        0.16283672464254
C           27.37706888797894       -2.42999434770625        0.11734353489711
C           26.67967373815515       -1.17450191117710        0.05564818076063
N           25.33419623815203       -1.40186966444135        0.06498931025474
H           28.37032644417493        0.09307329488489       -0.00499543434024
H           28.35237254560001        2.72125458082299       -0.13651444621327
H           26.40803433671421        4.58800732564849       -0.22923950578438
H           23.78024279798531        4.50223569084088       -0.22198802743247
H           21.15908890847419        4.49761284755168       -0.21412773129373
H           19.27952282231593        2.56815431629004       -0.11423450612206
H           19.37760062695841       -2.71827071383289        0.12696791554641
H           21.32873813432318       -4.57768469045812        0.21154227231694
H           23.94785559647989       -4.48484040834879        0.20990457743496
H           26.57787799552566       -4.47279442268825        0.21451351079753
H           28.45080243864349       -2.53468080665900        0.12400721044892
C           10.07681654547632        0.03443950803060        0.05769719654827
C           11.30093613370859        0.02046206464993        0.06555708338625
C           12.64409502867055        0.00379669462883        0.06873070128740
C           13.87412890391144       -0.02075329398383        0.06202676694111
C           15.21244281961384       -0.04299230185521        0.05312317352312
C           16.44250930692780       -0.06464516476248        0.04208069228422
C           17.78573859820129       -0.07320290742719        0.02939011756067
C           19.00986849333415       -0.07553372650727        0.01755265284274
