152
 energy: -235.140451723850 gnorm: 0.000308519384 xtb: 6.5.1 (b24c23e)
Co          15.79743719030970        0.08112518674033       -0.00015531584622
C           12.40607102272921        0.13276531508566       -0.02224832780957
C           13.06990217763086        1.15641011180227        0.61770136083799
C           12.40444998121598        2.24707743949900        1.26388889791396
C           13.36867929258732        3.11369183778723        1.65216652825961
C           14.62053484386333        2.54842904737955        1.24237697917835
N           14.43145341571747        1.32830107373619        0.64518203107197
C           15.83138618294308        3.21216272886019        1.35704564308358
C           15.84303428879867        4.59306849006198        1.91546140693629
C           15.67129726620445        5.68711067684737        1.06254616353069
C           15.47480075864141        5.46589041095861       -0.41353811515583
C           15.68274104460749        6.97271890014514        1.59073430467465
C           15.86029807744517        7.18365628175301        2.95406705048184
C           15.89057065134098        8.58079771100833        3.51232732737714
C           16.03025385584161        6.08697591335887        3.79315020259772
C           16.02342519480289        4.79256020548362        3.28705671774578
C           16.20644068806149        3.60989408580019        4.20026840718391
C           17.02758018321381        2.64339587735046        0.95739993888245
C           18.28943999197156        3.31221543813628        1.05673694286676
C           19.23541158221507        2.41311868101764        0.69491317959669
N           17.19648119230023        1.35250462155271        0.50972908217050
C           18.54784450160620        1.20117242712748        0.37690170514559
C           19.20797137258003        0.01069500554833        0.06275332251379
C           18.51413557081821       -1.15827448898717       -0.25873161230291
C           19.16663966868698       -2.39367868933932       -0.56028924751042
C           18.19726833057012       -3.26430873620285       -0.92939378338343
C           16.95682842773252       -2.55303691881529       -0.85645526550605
N           17.15988036653460       -1.26837295194664       -0.40390862913023
C           15.75239461557693       -3.07958007997908       -1.28720308727908
C           15.72803181280725       -4.45927666461968       -1.84818113532911
C           15.97007777919479       -4.66493145973007       -3.20991897511212
C           16.25863887392374       -3.49118712801782       -4.10734077277543
C           15.94150834911880       -5.95684337929594       -3.71998608529392
C           15.67714179356249       -7.04631837962468       -2.89473769812727
C           15.63967157937617       -8.43612758871941       -3.47073109865121
C           15.43776408006041       -6.82941407790965       -1.54267195241426
C           15.46004951109236       -5.54497558702120       -1.01035307796180
C           15.19874194983468       -5.31747763652532        0.45465083881502
C           14.56481207566834       -2.36892369729222       -1.21395773143392
C           13.30699281709959       -2.88263563360165       -1.67028102616061
C           12.36477342464496       -1.97863533839346       -1.31389479675936
C           13.04978136501634       -0.91641646516129       -0.64149133328597
N           14.40239945454697       -1.14643383212337       -0.61445267604068
H           11.32275710962447        0.15442902806050       -0.04037424132278
H           11.33539381669585        2.32497665083876        1.38273980879664
H           13.26262910105365        4.05841511834596        2.16074783140716
H           14.57552191805316        4.87289293660931       -0.59087973433768
H           16.32218001445171        4.91932761529305       -0.83155384524953
H           15.37658236289803        6.41485491867120       -0.93978114853115
H           15.54922717311309        7.82208807310706        0.92876970922847
H           15.48707394736991        8.60298929182889        4.52501024512137
H           16.92042270992365        8.94362196195011        3.54980386403423
H           15.31327451455562        9.26217385673182        2.88703920289709
H           16.16866031562076        6.24255571204111        4.85809928939763
H           17.09102092965243        3.04026386325491        3.90914251191257
H           16.32263497631777        3.93112244566261        5.23488971220248
H           15.34439759264720        2.94338813053552        4.13497348757469
H           18.41658227767520        4.33505092266270        1.37254784250753
H           20.30526933508482        2.53863595433187        0.65061290900674
H           20.23113070295063       -2.55338833777033       -0.49949813479850
H           18.29541877618734       -4.29258343119168       -1.23778292273023
H           15.44389371313499       -2.76646205989668       -4.05852473861056
H           16.38037723469591       -3.81239721916431       -5.14134690344897
H           17.17290965434505       -2.98705319306168       -3.78818415058844
H           16.12865985882651       -6.11816073491975       -4.77662281551403
H           16.51193275373799       -8.61326866483582       -4.10161790409530
H           15.61982925232229       -9.18645637432227       -2.68045208940814
H           14.74729205070414       -8.56178592167699       -4.08772757407005
H           15.23095426263111       -7.67212715389551       -0.89113675691207
H           14.31214977761248       -4.69461253576918        0.58822832670033
H           16.04219359764174       -4.79973130362387        0.91500985037281
H           15.04229292487801       -6.26260538865079        0.97364996574594
H           13.18175218643216       -3.82051758014960       -2.18709720678337
H           11.29869112564431       -2.01251681643230       -1.47321327752582
Co          29.21868764035134       -0.05880348490593       -0.05402585578980
C           32.61006707283432       -0.08157260347345       -0.10282202431878
C           31.94613130932600       -1.26304297710002       -0.35055256743266
C           32.61151057432652       -2.49745693338560       -0.63943495439118
C           31.64735922695867       -3.39104807515340       -0.96102206444121
C           30.39560138669139       -2.69915130151859       -0.86620136134797
N           30.58463811458807       -1.40564104186373       -0.45122393656925
C           29.18495453143438       -3.25694614693375       -1.24445794049061
C           29.17363771450887       -4.63947621699570       -1.79883633137631
C           29.34738085312162       -4.83723252140142       -3.17163848798300
C           29.54539982323472       -3.65490066962460       -4.08227172587017
C           29.33653957521204       -6.13013256443927       -3.68173216073844
C           29.15763785623845       -7.22693954417772       -2.84525077124370
C           29.12814568916858       -8.62110083402029       -3.41095308670099
C           28.98564675525986       -7.01769705601896       -1.48059458058264
C           28.99183047344389       -5.73375899549297       -0.94847544636551
C           28.80670546895364       -5.51393237878037        0.52920928717297
C           27.98876711107643       -2.56982616030743       -1.13903503232124
C           26.72696256305909       -3.12075611814553       -1.53123387656790
C           25.78096200101047       -2.22180566499934       -1.16910048590614
N           27.81978510583055       -1.32898054042137       -0.56715410551167
C           26.46845675385200       -1.12775019114950       -0.55828032148312
C           25.80818917180618       -0.05169346724168        0.03994713102753
C           26.50188198635250        1.01405122100220        0.61807029877016
C           25.84943096729633        2.11409962447669        1.25611584908167
C           26.81875849699733        2.99814442063605        1.59197389527076
C           28.05912218567626        2.43469425202225        1.15160915992096
N           27.85613746616190        1.19422237885320        0.58910744948958
C           29.26337593279942        3.11326789580187        1.20447697835320
C           29.28738459832658        4.49785918268479        1.75327620874772
C           29.04458815379759        5.58781420686312        0.91168653717391
C           28.75539226851616        5.36010144257339       -0.54804773407330
C           29.07300225290857        6.87389094513252        1.43629208517947
C           29.33793223443941        7.09060940096225        2.78563446656944
C           29.37537877936854        8.49301733531509        3.33023601685271
C           29.57792256437326        5.99920933923366        3.61248587059019
C           29.55581098724550        4.70314226215324        3.10911921006712
C           29.81777276236079        3.52602789978398        4.01025945663677
C           30.45108372770940        2.54962648289586        0.76583793752444
C           31.70894104084768        3.23616239681676        0.79238822108928
C           32.65135571957367        2.33662847563545        0.42535462744517
C           31.96639466840615        1.10449924585411        0.17566808704194
N           30.61367419930369        1.25206977977324        0.35329704823344
H           33.69340586771796       -0.08496859453113       -0.12987116027358
H           33.68048879195307       -2.63630119809695       -0.60656812151573
H           31.75339652222923       -4.42467160287552       -1.24873974460320
H           30.44451336093219       -3.10478815584984       -3.79807373101841
H           28.69815663995948       -2.97089144185696       -4.00593504859736
H           29.64481156608106       -3.97441592390622       -5.11916051315276
H           29.47164460228994       -6.28379562841158       -4.74736910454936
H           29.53068753738700       -9.33883526959024       -2.69565697324458
H           28.09860151659825       -8.90867738148951       -3.63674146750960
H           29.70669204095060       -8.67906204150743       -4.33315346987643
H           28.84619093908343       -7.86782206542390       -0.82080864946967
H           27.92169470303915       -4.90175195016420        0.71281127191970
H           28.69003994433668       -6.46250943345381        1.05239249064751
H           29.66802445927962       -4.98790792190273        0.94518757445512
H           26.59987886107118       -4.07696355006729       -2.01249679603402
H           24.71110455477409       -2.28150261076566       -1.28812338187386
H           24.78501504383207        2.18699248680188        1.41116537900028
H           26.72061081334493        3.95363838254812        2.08134818671941
H           29.57004694213863        4.80291885506900       -1.01420537000471
H           28.63315699222209        6.30700505828470       -1.07302049995955
H           27.84120853994408        4.77497730892671       -0.66553210944446
H           28.88530441589954        7.72088847774393        0.78445186142565
H           28.50294220041833        9.05704411442712        2.99712479231139
H           29.39558683995809        8.48885141953231        4.41996177662563
H           30.26757795367125        9.01045618169533        2.97099129164432
H           29.78510634043286        6.15771320125012        4.66575998900036
H           30.70450511433874        2.98399105959444        3.67596625626564
H           28.97458185565987        2.83335516907427        3.98510936380081
H           29.97431598132676        3.85014584695402        5.03863030952477
H           31.83409815710694        4.27098539975228        1.06785767083148
H           33.71752220386436        2.47118652325331        0.33454280882540
C           21.83376871227574       -0.01844264081019        0.07029149353065
C           20.61112020481806       -0.00991259227190        0.06801217278814
C           23.18247753717520       -0.03038112680188        0.06513445447172
C           24.40505091019099       -0.04044855429612        0.05703862602707
