215
 energy: -347.365949482928 gnorm: 0.000360993989 xtb: 6.5.1 (b24c23e)
Ni          28.41619279468566        0.08674929345859       -0.22617993018398
C           25.06834495981097        0.27466064946411       -0.74207288604509
C           25.70737655463756        1.38719187587526       -0.23502407409865
C           25.02459446019506        2.58905444187475        0.13478512384883
C           25.96478376389946        3.43906852336735        0.61001800789806
C           27.22664777519499        2.76804598638160        0.49687527931060
N           27.05356464126894        1.49736043844492        0.00619702208291
C           28.44806479560436        3.36015753345587        0.78974844046653
C           29.65939504716870        2.70456661989841        0.61427838441767
C           30.93229848157753        3.34036032283451        0.77031548137118
C           31.87347021507771        2.40538661549787        0.49636380132608
N           29.82104167732031        1.39046305026297        0.23740842852382
C           31.17441378520430        1.19912401038736        0.18690081680890
C           31.82159846440091       -0.01626355209658       -0.05320534879478
C           31.12692658002034       -1.21014324004564       -0.26784686621569
C           31.77517941749949       -2.47505062607990       -0.40651860582900
C           30.79863482716408       -3.39239050263562       -0.60572900192314
C           29.55605182229050       -2.68144492521170       -0.60272149536833
C           28.33658406798623       -3.27140112904775       -0.90435317821398
C           28.30512783736414       -4.73242830859698       -1.16595312476961
C           28.00692488661711       -5.21235564292841       -2.43907794579477
C           27.98602908067647       -6.58111395810119       -2.69063266978105
C           27.64922379004888       -7.08994609788803       -4.06626123159245
C           28.26107700169141       -7.46790238440955       -1.65553146097373
C           28.56035512570467       -7.00256901246284       -0.37721999931610
C           28.86977238776885       -7.97889361005092        0.72534005669116
C           28.58410876107789       -5.63353864193597       -0.13895835157284
C           27.15817759566989       -2.54534773838303       -1.01571379759687
C           25.89923361442045       -3.11776241062327       -1.39327686079245
C           24.99337976447370       -2.11210456163095       -1.38838576211613
C           25.69224057297452       -0.93269324457287       -0.97777851441477
N           27.02059146432331       -1.20306065324741       -0.76337372446529
N           29.77038959395174       -1.33948242971041       -0.37975320761109
C           28.47066593647291        4.76568327258790        1.26395356741329
C           27.99798762032484        5.79364450179867        0.44935283226275
C           28.02631188017118        7.11246453888942        0.88942478155351
C           27.53853626504868        8.22264112629673       -0.00181321139699
C           28.53183809645078        7.39879116190432        2.15424850124831
C           29.00914846289221        6.38385060416811        2.97794666707086
C           29.53602348478321        6.70263253953903        4.35100393336601
C           28.97710215484986        5.06856432274283        2.52677278122452
H           24.00141795120791        0.33902115678692       -0.92165542132729
H           23.95982229745528        2.73773351806200        0.04968137200458
H           25.82908158916367        4.43390042251366        1.00204477488519
H           31.07599565063464        4.37408990550381        1.03907697831444
H           32.94677730762517        2.50565801454445        0.50737524195434
H           32.84140689697977       -2.62550882467629       -0.35400821588759
H           30.90067695799342       -4.45366497826528       -0.76317700912157
H           27.80784311278267       -4.51049512869477       -3.24153859577076
H           28.05266355543121       -8.09057844623157       -4.22154310260481
H           26.56476973997609       -7.13610013805766       -4.18963406564341
H           28.04812846552846       -6.42507635306610       -4.83290865001451
H           28.24509252388234       -8.53630809228249       -1.84510413694426
H           28.87957057811791       -7.48269809638528        1.69560574615119
H           28.12948261103284       -8.77983146727762        0.74709949860114
H           29.84994497111154       -8.43103670821438        0.55946724154415
H           28.80820216621649       -5.25708020082118        0.85309392517239
H           25.74111938582945       -4.15826449498804       -1.62598922371707
H           23.94009133863234       -2.14969943546295       -1.61696151441041
H           27.62288575277030        5.56002221474064       -0.54104679097478
H           27.06359660620351        9.00961521520478        0.58470244273207
H           26.82396806867665        7.84803056666085       -0.73481199627268
H           28.38047509070792        8.66327918285566       -0.54064327796940
H           28.55601430908159        8.42675460503849        2.50119304808410
H           28.71810399828430        6.68864575042384        5.07501870935255
H           29.99015289856287        7.69356834353563        4.37193267211614
H           30.27779321658002        5.96710481234510        4.66275802184113
H           29.33653961089005        4.26711601903556        3.16290987930745
Ni          60.39867221707112        0.15636777639213       -0.12192096140427
C           63.74646111945748        0.58901036378692       -0.46673764080846
C           63.09762514372085       -0.19723650094048       -1.39608496735975
C           63.77044574850328       -0.87793166887053       -2.45984764127626
C           62.82387235878731       -1.56517645838578       -3.14084169414117
C           61.56811577301517       -1.27666631400434       -2.51210153048946
N           61.75094759817070       -0.45868078787925       -1.42452819876916
C           60.34369898305771       -1.72944629968427       -2.98492876428291
C           59.13768158952010       -1.38969706579452       -2.38678455549688
C           57.86025300830993       -1.73089998478726       -2.93552982319609
C           56.92547132619601       -1.21186063139228       -2.10416978370801
N           58.98524614840520       -0.65870939607732       -1.23047823456631
C           57.63296165980076       -0.56582490169749       -1.04482853774920
C           56.99458405225780        0.01610394801169        0.05299419816775
C           57.69522793215729        0.57499239290852        1.12440193009665
C           57.05376014604315        1.08080842825322        2.29604826672209
C           58.03557695337983        1.53457371740175        3.11117692146828
C           59.27463317470724        1.31701111492326        2.42759418076764
C           60.49927829167605        1.76257518267199        2.90486666770764
C           60.53922051094089        2.42930559213107        4.23086906721144
C           60.84722631966179        3.78424987624944        4.32754800919438
C           60.87472294235555        4.41519907472131        5.56784222259394
C           61.22074868611212        5.87667257346165        5.66323413672060
C           60.59740075343532        3.67742989713450        6.71341814693181
C           60.28914302725955        2.32152786117076        6.63228634487660
C           59.97753280601903        1.54467357332128        7.88287730121771
C           60.25792431551275        1.70346281657309        5.38781180093549
C           61.67528661641036        1.64976577033830        2.17560319924353
C           62.94036573912905        2.16013331087021        2.61650001059610
C           63.84084775086501        1.86555266332704        1.65002375710949
C           63.13213967978143        1.14932327574569        0.63369656819885
N           61.80386972100550        1.02967694041467        0.95758940918902
N           59.05306376447416        0.71515466823653        1.20929304640017
C           60.31129949164934       -2.57209152331764       -4.20575596263336
C           60.75748146383118       -2.06455292534319       -5.42518161609194
C           60.71870533871024       -2.84905186804993       -6.57269347302934
C           61.17677489060841       -2.28998965240659       -7.89265787787972
C           60.22992607919695       -4.14988727028333       -6.49341216888046
C           59.77972243046618       -4.66998764335973       -5.28382339789537
C           59.27122375760160       -6.08416445818249       -5.20572846209482
C           59.82168636170429       -3.87558452611600       -4.14281019659612
H           64.81344593600133        0.73891598957203       -0.58424220057708
H           64.83353967266433       -0.83566028897248       -2.63629516933097
H           62.95121271380518       -2.21108896667539       -3.99429956772763
H           57.70941394699062       -2.28271632167277       -3.84887804589450
H           55.85142287398343       -1.25975993055869       -2.18336399232158
H           55.98810042774192        1.07950110686856        2.45920841275057
H           57.93983146321504        1.99550558722014        4.08065616436197
H           61.04872602553283        4.35196331617776        3.42572379661288
H           60.81825535221618        6.31375313676113        6.57708768683048
H           62.30599111029603        6.00121747725210        5.67446389357667
H           60.82696789686129        6.42408600831960        4.80638514735103
H           60.61874134143198        4.16347095929119        7.68346831906242
H           59.97316663007311        0.47271962882775        7.68633698715122
H           60.71324618734214        1.75719040361214        8.65972956792031
H           58.99425826257409        1.82910333711507        8.26367347948581
H           60.02601054276423        0.64692109546105        5.31003445084560
H           63.10536446746484        2.67330649347416        3.54990964281450
H           64.89613096452406        2.08578590898220        1.61910751308918
H           61.11999188900612       -1.04376501800101       -5.47763527686401
H           61.65227634852803       -3.06334740733723       -8.49657843774430
H           61.88272980311234       -1.47257563436189       -7.74543823328833
H           60.31993649559432       -1.90441768020049       -8.44990512612769
H           60.19755692851752       -4.76515067913910       -7.38676081948849
H           60.09997703424794       -6.76592703767110       -5.00136791097790
H           58.81051147567401       -6.38347099943040       -6.14741508196524
H           58.53939136831233       -6.19005139969215       -4.40469723181625
H           59.48296998033916       -4.27226931623251       -3.19196604981944
C           37.02195885492679       -0.08942312748254       -0.01522946751037
C           35.79399127269325       -0.08113800817320       -0.02254016664754
C           34.44931843946302       -0.06496254313846       -0.03126752182277
C           33.22598640422157       -0.04538155614788       -0.03804490335679
C           38.36660114262784       -0.09204389061183       -0.00595441449137
C           39.59021328076422       -0.09154813727298        0.00030108439139
C           53.02043387569613       -0.01011059329846        0.14273239442586
C           51.79312855134360       -0.02036246431644        0.15083278339031
C           50.44726571412591       -0.03008946189415        0.14675064640515
C           49.22437534925569       -0.03994716255311        0.13310612058704
C           54.36629872619938       -0.00157771752311        0.12222853313356
C           55.58886631421270        0.00518307536145        0.09667229576756
Ni          44.40745850993721       -0.07151729507903        0.02562176557402
C           40.99417464766844       -0.08671177338120        0.00449501559365
C           41.66222835068774        1.14119725444869        0.04345174168678
C           40.99008185059508        2.39920588356037        0.11033777087148
C           41.94144586549302        3.35567866788164       -0.02069083163702
C           43.19168056750785        2.67666977093353       -0.17258893779957
N           43.01248067187849        1.31455318813800       -0.08686180670322
C           44.39494487762135        3.31682603263197       -0.43813886138866
C           45.60512624537637        2.63955804994426       -0.50644796445888
C           46.85526195920053        3.26475946238205       -0.81319796331995
C           47.81481971699706        2.32179064677467       -0.64969051851624
N           45.79324441152635        1.30826200558429       -0.21077354025703
C           47.14726456892235        1.12159805537381       -0.25857196708558
C           47.81918361260649       -0.04905238332916        0.10444593547112
C           47.14663467570445       -1.23174925562209        0.42398389512913
C           47.81211243421369       -2.43157352188287        0.81972542723448
C           46.86113917031817       -3.39347470310008        0.90468804546439
C           45.61805371267433       -2.77788318537464        0.55324886628612
C           44.42058537493112       -3.46859651513725        0.42003083797054
C           44.43004146309313       -4.94247496155496        0.58207239811890
C           43.68758060632238       -5.54392889569699        1.59682876420711
C           43.69488438692296       -6.92626043876144        1.75266024209947
C           42.91167647572338       -7.56681657503118        2.86655853302251
C           44.44841739833878       -7.70645833776816        0.88134952263902
C           45.19211857378703       -7.12071174082255       -0.13938213292029
C           46.01305216312107       -7.97622764848611       -1.06602968126768
C           45.18265712492099       -5.73773833100850       -0.28151116217351
C           43.21601650596121       -2.83453370097851        0.14640977844259
C           41.97384245587671       -3.52095387792779       -0.03631063267560
C           41.01366344061108       -2.57039614074954       -0.14407184733439
C           41.67328543606074       -1.30834221290802       -0.04103720480618
N           43.02400226135311       -1.47205732078852        0.09521848739500
N           45.79960957498074       -1.43680608151143        0.30277155840473
C           44.38690775399768        4.78413153505867       -0.65225943530380
C           45.09517423057527        5.62453093679846        0.20454620887452
C           45.08607931287270        7.00215150072614        0.00943218346621
C           45.86224682251343        7.90024607712324        0.93438375196426
C           44.36905574769695        7.53459172743053       -1.05699731544807
C           43.65807012808368        6.70770641968299       -1.92269514533414
C           42.90403835773495        7.29606460672450       -3.08445021367117
C           43.66804627629083        5.33338990077479       -1.71361447955354
H           39.92613047999696        2.51918187519645        0.23625766262005
H           41.81855318944356        4.42640394864784       -0.01306919557079
H           46.97316494205229        4.29288291667712       -1.11420564469605
H           48.88112082722165        2.41537178451295       -0.77807143269821
H           48.87175588851363       -2.51266814715519        1.00099954793312
H           46.98001494923535       -4.42810423237375        1.18218793000803
H           43.11285318295543       -4.92432757461198        2.27649666479749
H           42.61652888107617       -8.58197809658839        2.60059281265514
H           43.52434640875547       -7.61629791174908        3.76967206785973
H           42.01735895899537       -6.98686312335438        3.09552723032495
H           44.45421148033866       -8.78552730614151        0.99634612162468
H           46.19874027479511       -7.46197343702979       -2.00898881527018
H           45.50703526508825       -8.91993534581154       -1.27166641529312
H           46.97727398603462       -8.20268265158306       -0.60522074621597
H           45.74744524124497       -5.26974095228359       -1.08035691335373
H           41.86117806878908       -4.59205929576562       -0.07621604979859
H           39.95174371282192       -2.69683640779706       -0.28047512278231
H           45.64003971506798        5.19866500333259        1.03997999447457
H           45.46239827732548        8.91416443198923        0.91975312507453
H           46.90794866445415        7.94097067497962        0.62104998110771
H           45.83074117296371        7.52252587899340        1.95675744608244
H           44.36016395060003        8.60820750235495       -1.21480426908192
H           42.47255241463655        8.26108403746435       -2.81711250026761
H           42.10508254573070        6.62906968472720       -3.40836535066118
H           43.58221241137616        7.45034656983666       -3.92685367691282
H           43.12619049482522        4.67739110287068       -2.38607874921166
