118
 energy: -213.303572199394 gnorm: 0.000605459334 xtb: 6.5.1 (b24c23e)
Cu          17.43082739371545        0.08509944969789        0.03089654157566
C           14.01399528627780        0.12099543904226        0.06466206422024
C           14.65575744393985        0.99849075648893        0.92544016581237
C           13.99282877620346        1.90900186702220        1.81471823027226
C           14.96210042669983        2.58727633155644        2.47956672908765
C           16.22152270004204        2.09459350112730        1.99978209734910
N           16.01035269750299        1.13358568122945        1.06106137827653
C           17.47662825604574        2.54285182991580        2.44082146904976
C           17.49599586919138        3.54641445274292        3.43531001867433
C           17.50718416379361        4.40642740473283        4.29126899733522
C           17.52742892452617        5.40643324334280        5.29032979800305
C           18.73346612188084        5.95163833552041        5.74637517336979
C           18.69979715404023        6.92728144491626        6.72653953188303
N           17.56977896064302        7.37889498320831        7.26513200414269
C           16.41911729239057        6.86549314791841        6.83725047013594
C           16.34345313599874        5.88752154441508        5.86158835024498
C           18.71320200580129        2.06916297119834        1.97523188932770
C           19.98596094774434        2.52678189978369        2.44660463449903
C           20.93263092417025        1.82907132850514        1.76719287683252
N           18.89580977084948        1.10993874258181        1.02204748221731
C           20.24210249789499        0.94569509938419        0.87620566805284
C           20.87090674091261        0.04348620929722        0.00212061163243
C           20.20615680340869       -0.84116065196024       -0.86329786017732
C           20.86055874395234       -1.73981718784673       -1.76620652859829
C           19.88629280081602       -2.41453165560391       -2.42956610349352
C           18.63297754240780       -1.92770266398236       -1.93589584351236
N           18.85424632956827       -0.97296837013162       -0.98666169646685
C           17.37767214604421       -2.37525727147480       -2.37648887848046
C           17.35768158172749       -3.38616905576676       -3.36334379767644
C           17.34321320600462       -4.25533213913824       -4.20992838293854
C           17.33164738057179       -5.27002821151203       -5.19412031264957
C           18.52110000124370       -5.85052710664716       -5.65015783734775
C           18.45700577076065       -6.84202855727701       -6.61271990931596
N           17.31252508905804       -7.27690385663272       -7.13409675642946
C           16.17751177762736       -6.72978649586562       -6.70620382480179
C           16.13223791901113       -5.73360136661382       -5.74724739671996
C           16.14160259020421       -1.89859809050853       -1.91234934841350
C           14.86299573521349       -2.36586164151699       -2.36581426935727
C           13.92148464322170       -1.66675332711848       -1.68291788624427
C           14.62075794200037       -0.76913254066634       -0.80851662873202
N           15.96934648522889       -0.93190939058938       -0.97133881171915
H           12.92889784540688        0.13155127293330        0.07553712413044
H           12.92269226126841        2.00659796700003        1.90808992846148
H           14.84805109275199        3.35451458006612        3.22888757624681
H           19.67659883915097        5.61232370645816        5.33514188269786
H           19.62031047653601        7.36796953178909        7.09853602018464
H           15.51644635732316        7.25619768950283        7.29826749264350
H           15.38453346506336        5.49706466602539        5.54273851291374
H           20.12694038961863        3.28248851032850        3.20279683060159
H           22.00454737712489        1.89681158429502        1.86006400982969
H           21.92887050535045       -1.83212360396683       -1.87756165742812
H           19.99695994465205       -3.17262108463711       -3.18843363340155
H           19.47499742289004       -5.52606236440976       -5.25212062151238
H           19.36421345975021       -7.31013899482405       -6.98397865303816
H           15.26230228179931       -7.10765675065308       -7.15289804917625
H           15.18514504249917       -5.31602489944877       -5.42738168205943
H           14.71838227766634       -3.13166673868811       -3.11131752804852
H           12.84787658686498       -1.74217895354691       -1.75411590574949
Cu          28.34950821208317       -0.07131650222912       -0.05457328250271
C           31.76639488606761       -0.11834733386515       -0.07408427868493
C           31.12417948621833       -1.30740179816779       -0.38466171408920
C           31.78660001416083       -2.53770544480569       -0.71147992320870
C           30.81695498337966       -3.45656215875398       -0.95029390742595
C           29.55779588461374       -2.79217414813659       -0.77077243312548
N           29.76948578581427       -1.49333644802704       -0.42811810202345
C           28.30251628194035       -3.40135266311080       -0.92589065665287
C           28.28428624905242       -4.77013583860943       -1.27606261869139
C           28.27715267503018       -5.94586000778725       -1.57601442913301
C           28.26447793231764       -7.31644730819206       -1.92221171045878
C           27.06148992574978       -8.00061643393541       -2.13351219813297
C           27.10336512129397       -9.34198214542527       -2.46940589119101
N           28.23857816758490      -10.02356118462495       -2.60287219285594
C           29.38634829484864       -9.38047142699193       -2.40329046996218
C           29.45386295251153       -8.04073802867130       -2.06482469506035
C           27.06609909027989       -2.75894243470892       -0.75618610004305
C           25.79309009360576       -3.39836394173167       -0.90481114161263
C           24.84680132969691       -2.45659806207187       -0.65530330892225
N           26.88400117131320       -1.44815839954043       -0.42329943547015
C           25.53783721330763       -1.23827907606296       -0.35649082344878
C           24.90952873671482       -0.02439640415966       -0.03216974566281
C           25.57470736835145        1.17215876386413        0.28292279770533
C           24.92079986191790        2.40846423240158        0.59121138185220
C           25.89540204074174        3.32366727805003        0.83001913836159
C           27.14846163271963        2.64973873767829        0.66515772738182
N           26.92669135815831        1.34522119938806        0.33260348873191
C           28.40397322251915        3.25721869646315        0.82277300314902
C           28.42478118378677        4.62337371352257        1.18245743289794
C           28.44120666457860        5.79586326607547        1.49451032664637
C           28.45632175313508        7.16156331222474        1.85921831949369
C           27.26765097308664        7.86019063225512        2.10181487018636
C           27.33558897575405        9.19541599269590        2.45723722684168
N           28.48306436867108        9.85776061912026        2.58118583101198
C           29.61732591251462        9.20088998048127        2.35156036020671
C           29.65882801045046        7.86567169568949        1.99179630775606
C           29.63982663690467        2.61419251539076        0.65032755143159
C           30.91867215696037        3.24324373345297        0.81661292079899
C           31.85982498180970        2.29859845143069        0.56479378472114
C           31.16007880164749        1.08759771453855        0.24368905153790
N           29.81157961155767        1.31068987396171        0.30249024561605
H           32.85148634995025       -0.13291639773740       -0.07978242378544
H           32.85666846408629       -2.66776579260806       -0.74977269634180
H           30.93064696740144       -4.49335160981521       -1.22466175298276
H           26.11435950494387       -7.48387103845242       -2.03498153123125
H           26.18551729632850       -9.89714758434745       -2.63999142805178
H           30.29352149331596       -9.96663964686311       -2.52037084567844
H           30.41067700871059       -7.55638441178778       -1.91131861178125
H           25.65175875139277       -4.43556101222328       -1.16376340786222
H           23.77483500056586       -2.57082484370698       -0.66464918724904
H           23.85255554872792        2.55180004694849        0.61367516223208
H           25.78514045537685        4.36396387803540        1.09166141463698
H           26.31133194793136        7.35907655252076        2.01209105898921
H           26.42909024765211        9.76141807903795        2.65196593409630
H           30.53506374059743        9.77155155753381        2.46124979865828
H           30.60536800652654        7.36952642447576        1.81422612563455
H           31.06370768742552        4.27595701807919        1.09158541823805
H           32.93347730992445        2.39848494465505        0.59103465682606
C           22.28240999250071        0.02197970553296       -0.00852441605445
C           23.49801761986848       -0.00317728942073       -0.02125273245492
