225
 energy: -351.005244689849 gnorm: 0.000212007324 xtb: 6.5.1 (b24c23e)
Cu          35.53462931434174        0.03583997077023        0.00190265826914
C           32.12124093481097        0.07757493054732       -0.00606988860226
C           32.76045711422526        1.20385958942239        0.49156407141431
C           32.09358492305123        2.37316954516480        0.99155451141662
C           33.05831053886823        3.23831059982963        1.39234100301758
C           34.32368347006123        2.60336306948745        1.14315615957504
N           34.11187569215154        1.37228666321812        0.59164880426695
C           35.56727836036651        3.16064063048975        1.43661731925722
C           35.58505141915069        4.52598737844589        2.03871768994454
C           35.65291040282750        5.64949164541863        1.20947221534812
C           35.70675688548178        5.47746138145680       -0.28530834481363
C           35.67051595681557        6.91783922888775        1.77699906535945
C           35.62115046184078        7.08377525051415        3.15760060396448
C           35.66167386598047        8.46333181524531        3.75774012828965
C           35.55503935180030        5.95916310042932        3.97310615308378
C           35.53610995781921        4.68093305327050        3.42660687059268
C           35.46438342686744        3.46765372543544        4.31518792174891
C           36.79781416205913        2.54732914754292        1.20672247621333
C           38.07194011069471        3.12639821857541        1.52631226279223
C           39.02093768372394        2.23821708834048        1.13529617300020
N           36.98944261623197        1.31873731307724        0.63429441696233
C           38.33416432470849        1.11293288594810        0.57246993889518
C           38.96763296143984       -0.00522710816022        0.00859103698840
C           38.30984210757271       -1.10859118055373       -0.55637499242652
C           38.97165395482278       -2.25065747282367       -1.11516353338689
C           38.00317589566339       -3.11600403680755       -1.50973519092561
C           36.74196158128643       -2.50599498141686       -1.19646488092454
N           36.96077233295908       -1.28212659753060       -0.62359144338169
C           35.49781046754852       -3.08892932247469       -1.43247578731276
C           35.48453012120171       -4.45474715274681       -2.03374310688491
C           35.44363512998176       -4.60946261130089       -3.42276199012454
C           35.40980863002214       -3.39518231702093       -4.31221625612102
C           35.43614665117612       -5.88730919002336       -3.96774621352595
C           35.46897244691247       -7.01382520776468       -3.15033477529085
C           35.45627238552538       -8.38843727741170       -3.76307214464923
C           35.50787580711997       -6.84835071983022       -1.77084592631086
C           35.51631901516432       -5.57844760668898       -1.20396301554522
C           35.56103187111792       -5.40736089704465        0.29122805753518
C           34.26684126200016       -2.50118289231627       -1.14522964410543
C           32.98751177016115       -3.10489089993351       -1.40079747001527
C           32.04231362521730       -2.21649963500674       -1.00436759362280
C           32.73516433347314       -1.06393418957970       -0.50084733483922
N           34.08253106946358       -1.26533156489459       -0.59452956369197
H           31.03619810637812        0.09077627865660       -0.00861253864064
H           31.02301221601797        2.50158129673580        1.02522742343730
H           32.93815027617428        4.22041760860030        1.82145336092780
H           34.82819315192048        4.93284226600023       -0.63631122175369
H           36.59047921986543        4.90234481979598       -0.56836941258495
H           35.74327522091856        6.44367257156962       -0.78765338208039
H           35.72237082326948        7.78997810428333        1.13334478466875
H           35.21164970646191        8.46985984487368        4.75063026296614
H           36.69752409444537        8.79801287336481        3.85076137769494
H           35.13202673186225        9.17651045223246        3.12530188863615
H           35.51657235623884        6.07882048207023        5.05095579221404
H           36.32860183974290        2.82259053735746        4.14562521418201
H           35.44308173285433        3.75488154168680        5.36602475611320
H           34.56673581465400        2.88761497378180        4.09250575693720
H           38.21113779509791        4.08999522100027        1.98981201796212
H           40.09279038005690        2.32890015305139        1.21257040572862
H           40.04137750734232       -2.36707512472162       -1.18754128953571
H           38.12108775708293       -4.08312724676130       -1.97180545455730
H           34.52614090588087       -2.79182182433856       -4.09570698316520
H           35.38795323713206       -3.68240279426329       -5.36305344489686
H           36.28944121564948       -2.77283280086665       -4.13720556261298
H           35.40552928069577       -6.00861240980016       -5.04570189443267
H           36.25756645399959       -8.48554142177964       -4.49755389005630
H           35.58541956786395       -9.15735176412361       -3.00148863045009
H           34.50809022797175       -8.56395852035847       -4.27532067047724
H           35.53339631400651       -7.71994947078578       -1.12493091015724
H           34.69280226638302       -4.84142761336598        0.63417055962133
H           36.45584508912323       -4.85380540863244        0.58231125681487
H           35.56934865893950       -6.37399987316886        0.79399174765022
H           32.84540137772179       -4.08360663306171       -1.83095675770154
H           30.96909022991447       -2.31866173579716       -1.04321223409256
Cu          57.35933464210405       -0.04940061036843       -0.05711056546917
C           60.77276295034606       -0.05624522903601       -0.08365496868774
C           60.14021628795708       -1.18993301613598       -0.57294672565854
C           60.81401088574623       -2.35294097172217       -1.07834859925469
C           59.85423345386651       -3.22932956402270       -1.46638295376612
C           58.58496086068244       -2.60770370781810       -1.20380403936776
N           58.78966617781501       -1.37306073402833       -0.65760654745613
C           57.34421073847768       -3.17941448812956       -1.48105419776036
C           57.33406256523625       -4.54699399074377       -2.07828050579314
C           57.36285609835250       -4.70618174313527       -3.46644317534263
C           57.40645519368543       -3.49512691740599       -4.35986211020525
C           57.35025180970670       -5.98622383504060       -4.00824482117447
C           57.31038632925404       -7.10898809972553       -3.18792232987100
C           57.27535720889278       -8.48954730988269       -3.78609490291368
C           57.28144616750518       -6.93890037509105       -1.80758787897495
C           57.29310510277465       -5.66822578571812       -1.24452041306445
C           57.26157028506308       -5.49189888668243        0.25039883426841
C           56.10981824730253       -2.57850813290225       -1.23925134492128
C           54.83846570455779       -3.17194082561937       -1.54314550653628
C           53.88447560133982       -2.29214986169576       -1.14535155677482
N           55.91147619381549       -1.35002130074510       -0.66887665166222
C           54.56542174557657       -1.15781864490787       -0.59373362504718
C           53.92639905970695       -0.04393530875594       -0.02766276380657
C           54.57846621396759        1.06823913227636        0.52653755420362
C           53.91058767733244        2.20539653676328        1.08818978887252
C           54.87398909882714        3.08285560159811        1.46813432190020
C           56.13813897430072        2.48499633662753        1.14346505905368
N           55.92621669846592        1.25638555439723        0.57824939719801
C           57.37853569156353        3.08162518449354        1.36433531744955
C           57.38418497499786        4.44971090773795        1.96052854319773
C           57.33163377720071        5.57091585172404        1.12633921099477
C           57.27067738666462        5.39323399842211       -0.36750645262385
C           57.33475094476439        6.84124093884859        1.68837677915213
C           57.38845991211225        7.01238283796764        3.06893420883235
C           57.39783341992365        8.39868479251883        3.65478140519647
C           57.44077620564431        5.89102013565050        3.88859975737943
C           57.43887658536471        4.60988732246637        3.34719990194622
C           57.49281374841066        3.39963338340511        4.24114142693289
C           58.61252113804134        2.50466122383268        1.06821375054563
C           59.88820507060367        3.12123764057222        1.31094724288238
C           60.83836922925579        2.24055941868705        0.90922483420609
C           60.15221196484904        1.08006512102013        0.41482844905522
N           58.80385316691857        1.26882931629007        0.51984004468740
H           61.85785792783501       -0.05839911736809       -0.09180316729419
H           61.88546204879629       -2.46969450491373       -1.12429777187977
H           59.98014122953718       -4.21084106583631       -1.89521670054331
H           58.29865410905235       -2.90190690174164       -4.15042052444529
H           56.53551469295384       -2.86155955855864       -4.18152081753886
H           57.41846221648595       -3.78568755915462       -5.40993406747350
H           57.37292782686045       -6.10954804366723       -5.08613609270079
H           57.74057299134377       -9.21453451824966       -3.11772907528517
H           56.23993719431510       -8.79640778466920       -3.95185635118850
H           57.79275638539303       -8.51082692532167       -4.74554658425553
H           57.25035712466782       -7.80910415890468       -1.15999903508349
H           56.37808823582887       -4.92266507313704        0.54579014091465
H           57.24061012129397       -6.45677624367851        0.75618770624988
H           58.14141682107462       -4.93949455197866        0.58570892306438
H           54.70436587156983       -4.13865174740711       -2.00163979120725
H           52.81287075071699       -2.39418107793007       -1.21104981263459
H           52.84054162620538        2.31054178947932        1.17213959370928
H           54.75081272712023        4.05066337791689        1.92738929019664
H           58.14247169355322        4.83824226781948       -0.71916112880288
H           57.24247677413710        6.35771572513437       -0.87370639759580
H           56.38018975127824        4.82605857980703       -0.64524421004759
H           57.29341211317256        7.71190707773600        1.04193444234128
H           56.57729736491077        8.99113321147241        3.24681323397967
H           57.30009958900155        8.36568760425619        4.73979413734308
H           58.33316637048809        8.90498611925457        3.40709076280697
H           57.48232426185654        6.01376363583721        4.96597316235465
H           58.37851288972108        2.80217114179240        4.01671224436821
H           56.61604168976848        2.76977338126665        4.07893626506956
H           57.52465466100277        3.69126646405178        5.29049682671154
H           60.02470251164570        4.10252523143421        1.73704477626297
H           61.91087452826924        2.35281539246184        0.93895028447054
C           40.38104410276106       -0.01930018775720        0.00889703234465
C           41.59604346370306       -0.02580708732751        0.00940240255028
C           51.29799423530134       -0.04570514636187       -0.01087253267683
C           52.51302864086691       -0.04213599752002       -0.01697105139561
Cu          46.44711730991033       -0.04220673690100        0.00141598498060
C           43.00921796652999       -0.03223354788428        0.00782291388702
C           43.65819750947411        0.24293538651495        1.22170873783177
C           42.98723580602378        0.50602382618497        2.46082187374031
C           43.94923046389048        0.68543556149840        3.40166532523078
C           45.21492830597145        0.53858357913527        2.74072194350729
N           45.00546876920895        0.27178531709162        1.41469407379242
C           46.45562596040377        0.65433157232697        3.36550243392440
C           46.45935328059442        0.91134354605597        4.83565314391983
C           46.45732100714176        2.22106821671383        5.32194695349814
C           46.45276607145922        3.37875371922570        4.35946863679971
C           46.45856367702743        2.44075081896661        6.69501608270923
C           46.46095310436144        1.37550509699313        7.58875576300564
C           46.47910865072743        1.61884108629107        9.07385943501349
C           46.46465728360328        0.07504329208619        7.09334194930172
C           46.46349320154477       -0.16745878793437        5.72526460758581
C           46.46563756535971       -1.57718113850290        5.19656832145002
C           47.69315803773720        0.53791712770880        2.73467844988525
C           48.96217725275693        0.68536282188207        3.38910210014427
C           49.91942485537692        0.50229892015085        2.44412941184021
N           47.89587207797558        0.26782312918446        1.40830822965425
C           49.24214098947667        0.23627414519547        1.20910265957131
C           49.88488211154052       -0.04649391633971       -0.00627145271769
C           49.23586260525860       -0.33014227476914       -1.21818846906951
C           49.90686927728375       -0.60094829084982       -2.45561711168264
C           48.94492282542766       -0.78427400807948       -3.39573480450227
C           47.67927792020885       -0.63154320014734       -2.73606891423704
N           47.88863270880520       -0.35890268635084       -1.41123599368411
C           46.43873836034839       -0.74376798761429       -3.36170432428731
C           46.43547771043110       -1.00479218154146       -4.83112823524196
C           46.43139463334026        0.07134070341185       -5.72392755622707
C           46.43151397215634        1.48265345149947       -5.19947651672467
C           46.42706497394551       -0.17525265486164       -7.09129966570897
C           46.42586113532885       -1.47716088730461       -7.58280020638576
C           46.43916502643719       -1.72536550481483       -9.06714191439542
C           46.43111962394940       -2.53975978200699       -6.68586712360320
C           46.43548465893105       -2.31598766006481       -5.31350374920459
C           46.43874199720113       -3.47080534296640       -4.34757932941694
C           45.20114624064468       -0.61964666157494       -2.73250575453652
C           43.93212137095416       -0.75937736973805       -3.38859136083087
C           42.97480047641447       -0.57214554693701       -2.44453961223415
C           43.65206785395722       -0.31211234970777       -1.20821102639434
N           44.99836028900172       -0.34973981156935       -1.40608610249232
H           41.91655537359336        0.54192624623409        2.58511747661679
H           43.82381052129731        0.89960749880441        4.45101898725685
H           47.33186836144672        3.33744097894112        3.71353759902344
H           46.45489889526348        4.32896055409875        4.89267416919668
H           45.56798472048851        3.33711073686057        3.72133620510296
H           46.45582298462126        3.45832633241494        7.07193763533286
H           47.49704094466866        1.51341725707526        9.45620799444371
H           45.84832598993484        0.89505261743760        9.59129174385824
H           46.12849858924842        2.62378863744770        9.30915046521930
H           46.46675542513757       -0.76195485740172        7.78403538908456
H           45.58407267107206       -1.75071761385647        4.57650708378804
H           47.34794635139873       -1.74789295465742        4.57675779047428
H           46.46675190977377       -2.29927434908371        6.01255792849564
H           49.09285872950609        0.90249321619270        4.43720872330285
H           50.99074940616260        0.53736048999621        2.56303731769544
H           50.97752747407314       -0.63930689806684       -2.57933219488290
H           49.07028952163409       -1.00441321391603       -4.44385952594512
H           45.55274705975185        1.65515696302126       -4.57518194196543
H           46.42575726777875        2.20227930335977       -6.01762321360959
H           47.31659191031821        1.65815472596364       -4.58496167365712
H           46.42294653631802        0.65971326416324       -7.78443747151366
H           46.07906502151786       -2.72787787371817       -9.29851894445650
H           47.45750238800172       -1.63078835062532       -9.45130034708478
H           45.81434263175093       -0.99754086439514       -9.58607219450410
H           46.43012320035960       -3.55845148407159       -7.05977169215006
H           46.43988527051347       -4.42258016004919       -4.87798441517622
H           45.55745030419677       -3.42903095595883       -3.70464211154833
H           47.32134487939663       -3.42584540201840       -3.70668872258056
H           43.80148393589497       -0.97447367960378       -4.43711396716569
H           41.90345212500783       -0.60108254970321       -2.56481097433226
