306
 energy: -466.680132330760 gnorm: 0.000563284538 xtb: 6.5.1 (b24c23e)
Zn          49.42120891602441        0.01192928364085       -0.02032477082177
C           46.00324821020307        0.07321299369046       -0.02728040679551
C           46.64407375555113        1.20730311056943        0.45862617642329
C           45.98536569497026        2.38595927111083        0.95087447943694
C           46.95578744428975        3.25564007772176        1.32896646228610
C           48.21951861889244        2.61764128878479        1.07234333585011
N           47.99557874128467        1.37931214070580        0.54522154562401
C           49.47352162968613        3.17954711252702        1.32621381658130
C           49.49682043333434        4.55466551471958        1.90675085060244
C           49.52144227803068        5.66827177781516        1.06227896548888
C           49.52455405440309        5.47699950082796       -0.43116371820603
C           49.54229012930734        6.94412068460068        1.61305692413050
C           49.53814559982170        7.12704281123807        2.99230075039987
C           49.58174340177026        8.51397445574919        3.57515666453342
C           49.51434250084324        6.01211966751460        3.82350268125155
C           49.49319430753233        4.72711965957907        3.29357165307789
C           49.46534392755409        3.52416358144301        4.19858102291892
C           50.70720204013615        2.57073414190626        1.08623961981256
C           51.98713320565921        3.16452694402737        1.35744236653247
C           52.93174012169300        2.26238412784400        0.98714880086362
N           50.89750555058834        1.32220769347736        0.55786498717565
C           52.23915181352289        1.11038696368747        0.48571276709402
C           52.86306739926718       -0.05031757426357       -0.01213046694358
C           52.20031207388899       -1.18845459942396       -0.51154585370800
C           52.85338620184204       -2.36635592013570       -1.00574454806544
C           51.87869126409466       -3.23430223918029       -1.37982611410902
C           50.61966165449643       -2.59339322923246       -1.11797811156181
N           50.85228933059778       -1.35137533479240       -0.59117996307679
C           49.36579528501312       -3.15682687783739       -1.36394569280470
C           49.33996763238265       -4.53406102342365       -1.93934178210608
C           49.34148133468485       -4.71267433584934       -3.32613365481464
C           49.36813132682521       -3.51353808166711       -4.23624805820625
C           49.31607836803171       -5.99920552355298       -3.84963445684480
C           49.28924861707740       -7.11140326504495       -3.01261999725037
C           49.25605900757380       -8.49570235033182       -3.60251284260501
C           49.28680483816353       -6.92251789242603       -1.63556209994877
C           49.31188711932871       -5.64328772010177       -1.09043055166590
C           49.30822393769555       -5.44574562895673        0.40219135105623
C           48.13189178559589       -2.54905510406452       -1.11713340515070
C           46.84723546420556       -3.14193358374565       -1.37804682235721
C           45.90695729239441       -2.23792533754139       -1.00439432544216
C           46.60530157374987       -1.08295485335898       -0.51067158786921
N           47.95020346325705       -1.30282935924236       -0.59246804868660
H           44.91779497674242        0.09232297970955       -0.02918347859704
H           44.91567598879923        2.51910957143502        0.99655580776768
H           46.83814592515675        4.24331969758022        1.74615557657300
H           48.63147362173528        4.93309757992520       -0.74506509617058
H           50.39498480502220        4.89285344750343       -0.73611536520412
H           49.54900895397937        6.43635778648865       -0.94723550276836
H           49.56061877682878        7.80852880335500        0.95722010461375
H           49.13873524561532        8.53188696557905        4.57113126354082
H           50.61804140834185        8.85015974204863        3.65750904081373
H           49.04722684313819        9.21938366746221        2.93820797838465
H           49.51076968484936        6.14513267234520        4.90049597237656
H           50.33052887222316        2.88641517305961        4.00734690413545
H           49.47631452659739        3.82373967660767        5.24614980076115
H           48.56714263245466        2.93185386885493        4.01308589912232
H           52.13488138070880        4.14680976449982        1.77736534392104
H           54.00429690230096        2.36039708729292        1.04377296141593
H           53.92202409362548       -2.50363016268433       -1.05481792668069
H           51.99288495709909       -4.22260238395040       -1.79609234805100
H           48.48955563144109       -2.88866533531567       -4.06376168986169
H           49.38031060705649       -3.81809683294867       -5.28237733682606
H           50.25333128540748       -2.90630347738231       -4.03755871260902
H           49.31747338746089       -6.13880621920360       -4.92584471184967
H           50.07921362318405       -8.62984925655366       -4.30637061286985
H           49.33474617048626       -9.25462698959058       -2.82420394085247
H           48.32145076008948       -8.65160167550240       -4.14520104093228
H           49.26541413990086       -7.78285773078748       -0.97455170759471
H           48.43486602190555       -4.86459334136321        0.70465046377051
H           50.19851608129726       -4.89609301487157        0.71380249100474
H           49.28821055380008       -6.40299458016730        0.92232626617736
H           46.69612475697237       -4.12525736865969       -1.79473849897254
H           44.83339213264779       -2.33321450215538       -1.05358121462461
Zn          89.91421215558513       -0.04008997056005       -0.06342602079290
C           93.33213189840305       -0.08033634281201       -0.09819296271520
C           92.69269223366841       -1.22574467134947       -0.55867531807933
C           93.35268671805449       -2.40922131450604       -1.03747488286636
C           92.38314944361522       -3.28893278494731       -1.39399173299415
C           91.11867169267572       -2.65211420255264       -1.13802477255718
N           91.34132359151398       -1.40508913803191       -0.63132783282805
C           89.86519352187307       -3.22184422977361       -1.37674083024565
C           89.84430429986514       -4.60574464402667       -1.93615263722314
C           89.85518692634278       -4.80165658620087       -3.31996914048425
C           89.88629119959406       -3.61419707294526       -4.24511573257367
C           89.83873120478445       -6.09533845956916       -3.82795178246524
C           89.81274993769181       -7.19637135201663       -2.97792521421199
C           89.77550737391138       -8.59182057829213       -3.54054733623365
C           89.80093942321540       -6.99015744638665       -1.60237694257201
C           89.81689449685862       -5.70488364196513       -1.07323943791778
C           89.80695289919439       -5.48855112395065        0.41674936782741
C           88.63085578549996       -2.61496137526684       -1.13529665015150
C           87.35135404616905       -3.21532378216348       -1.39373935604288
C           86.40589945479223       -2.31532522672408       -1.02039442049064
N           88.43944100251123       -1.36399359097695       -0.61308683148331
C           87.09751197095474       -1.15802353505650       -0.52988948742494
C           86.47237092672093       -0.00012967989833       -0.02704738050668
C           87.13383353948723        1.14271345280041        0.46313318636599
C           86.47973352760270        2.31528698583669        0.96849931423846
C           87.45352882433806        3.19322320392924        1.32100451370633
C           88.71302974774495        2.56359389626972        1.03511645262044
N           88.48164325414177        1.31760984728095        0.51734804138561
C           89.96609484904330        3.14141335886838        1.24991286192365
C           89.98981834597819        4.52432085997667        1.81166778294912
C           89.98088966750848        5.62635684120149        0.95093803903324
C           89.94621853209084        5.41357456355516       -0.53919910629123
C           90.00529278258841        6.90938124848391        1.48285518366124
C           90.03802553651050        7.11206035208271        2.85986973836705
C           90.07085107896995        8.51145144800492        3.41302289969107
C           90.04640053964549        6.00969301383902        3.70642031772861
C           90.02240831995114        4.71653145599320        3.19496837213969
C           90.03120365061780        3.52670343191912        4.11754693532729
C           91.20058331817303        2.54245428911618        0.98509420540918
C           92.48460511719037        3.14875367162924        1.21662134050315
C           93.42580260056306        2.24656574043676        0.84087961667312
C           92.72869224392578        1.07952862163665        0.37455635446485
N           91.38358637108482        1.29093251121639        0.47351500185629
H           94.41763387066949       -0.09299525262010       -0.10861553086247
H           94.42254301715818       -2.53881118842099       -1.08908435912132
H           92.50191191099617       -4.28287425179000       -1.79570152728103
H           90.78631775104263       -3.02156197076878       -4.06974427725697
H           89.02306991060274       -2.97072672529587       -4.06464509491992
H           89.87452270579780       -3.93140471352419       -5.28748233371896
H           89.84817645073774       -6.24704682432763       -4.90244765540864
H           90.22257364531040       -9.30330701595860       -2.84586541888580
H           88.74050918782869       -8.89392450253060       -3.71728910660563
H           90.30948407741074       -8.64212709151150       -4.48987377693184
H           89.78092071319737       -7.84304491148361       -0.93169243040224
H           88.93302652613397       -4.90286635627201        0.70845800402513
H           89.78417068073838       -6.43917682756381        0.94878925296675
H           90.69662862068697       -4.93583718964297        0.72490455018530
H           87.20451234403392       -4.19999196861323       -1.80836861188785
H           85.33334284140082       -2.41803121175610       -1.06805944767645
H           85.41107578942031        2.44231060858764        1.03971162542394
H           87.33845837910718        4.18107913574029        1.73808788556374
H           90.82573121203411        4.85273694959703       -0.86170739853988
H           89.92551152489919        6.36569785314056       -1.06867948244698
H           89.06223977197592        4.83741596882435       -0.81926360057013
H           89.99831472605499        7.76519541763209        0.81558557168481
H           89.24732629959357        9.10125398067728        3.00692440559192
H           89.99284274203069        8.50446631666559        4.50011775710721
H           91.00516507551950        9.00402176036051        3.13593893843516
H           90.07146164398378        6.15698007699766        4.78125313707417
H           90.90525797418715        2.90248749909396        3.92173197612478
H           89.14164645822025        2.91502982148148        3.95502531538899
H           90.05320679212464        3.84180546110483        5.16037429846119
H           92.63472674883620        4.13900774235912        1.61694129030711
H           94.49925896537431        2.35035937879349        0.87194112223348
C           55.49263291007546       -0.08896166022439       -0.00700817995569
C           54.27135928557345       -0.07459833923709       -0.00944394227276
C           56.84434795439439       -0.10279836546170       -0.00883893180879
C           58.06577654122284       -0.10968079676858       -0.01049971254482
C           68.99346692923032       -0.06887811145287       -0.02087432191992
C           67.77095696275286       -0.07796842431936       -0.02340369106354
C           70.34203161573012       -0.05507636153051       -0.02349755316233
C           71.56457236303019       -0.04205930500937       -0.02330453817760
C           82.49091115989224        0.03371878180250       -0.00256897997987
C           81.26949005640367        0.03362701022985       -0.00173348454968
C           83.84271156113583        0.02761580819908       -0.00578202520893
C           85.06396718549529        0.01524866085342       -0.01421971134778
Zn          62.92005606480012       -0.09918004837221       -0.01607686904883
C           59.47373620622560       -0.11127395764606       -0.01179021328458
C           60.11910116048433        0.06605026647360        1.22792426155183
C           59.44795569451631        0.23805601934023        2.48349728613807
C           60.40940605879215        0.36205047308495        3.43454843583704
C           61.67708612813111        0.26664902453671        2.76682255244617
N           61.46451848640399        0.08834139963392        1.42642293029404
C           62.92248790781120        0.34014603886177        3.39477547206586
C           62.92377613016264        0.53222910438464        4.87522522632504
C           62.93550158699396        1.82273581507234        5.41109882941037
C           62.94394673709294        3.01613008182690        4.49317468926157
C           62.93736440726902        1.99042280544750        6.79122762299953
C           62.92657259083411        0.89200445428727        7.64403991586234
C           62.94780329993071        1.08130985034309        9.13697632757853
C           62.91488244104745       -0.38862382153452        7.09976834215509
C           62.91267895226008       -0.57902218917458        5.72322834875455
C           62.89739596278761       -1.96697887604261        5.14001470696337
C           64.16683762923876        0.25181394812298        2.76752489254299
C           65.43550549972548        0.32813813717799        3.43543752968424
C           66.39543529381257        0.20894612487040        2.48195313774098
N           64.37771479763528        0.08577731830046        1.42460630883857
C           65.72201175589856        0.05914385230962        1.22510617681412
C           66.36676343290712       -0.08523329693517       -0.02081408264685
C           65.71979938100137       -0.23404375633112       -1.26500486255696
C           66.39101439519851       -0.37421741048552       -2.52414656459578
C           65.42946460421513       -0.49545680423914       -3.47570780336876
C           64.16205265750050       -0.43132845952928       -2.80406144607756
N           64.37523619132152       -0.27033849507416       -1.46100536525442
C           62.91682837131599       -0.52552355384590       -3.42874817356394
C           62.91722793653522       -0.70283343770753       -4.91103295313682
C           62.88912025697493        0.41699498273352       -5.74720947668340
C           62.85790296243298        1.79869380939081       -5.14988780011631
C           62.89125776860994        0.24108136147620       -7.12575530537191
C           62.92005709319425       -1.03334648676890       -7.68349938112561
C           62.94080380483873       -1.20707915318528       -9.17833634995770
C           62.94952440445786       -2.14047487645412       -6.84229205202934
C           62.94818951681713       -1.98732145086298       -5.46055053857982
C           62.97933121769955       -3.18965417791746       -4.55489804030986
C           61.67258428872248       -0.46836228259533       -2.79683044446366
C           60.40384646019515       -0.57368115432511       -3.46105406919767
C           59.44411147769627       -0.46164702112137       -2.50677855992819
C           60.11732071659890       -0.28587612952966       -1.25281823529267
N           61.46232079959060       -0.29728248777581       -1.45504324971966
H           58.37741280696994        0.25889393904380        2.61243821506072
H           60.28010711168560        0.50502493081715        4.49558921562245
H           63.82591633380370        2.99310294591531        3.85012959656942
H           62.95005599304896        3.94555097045466        5.06184344378076
H           62.06190062007826        3.00488710392476        3.84987893764439
H           62.94564652420268        2.99296559612414        7.20647789868858
H           63.97159175044515        0.99527849804440        9.50854753557567
H           62.34407209779382        0.32004871640713        9.63217773718561
H           62.56796029298165        2.06583435046595        9.41050019612127
H           62.90558268426329       -1.25119208816934        7.75818001767924
H           62.01824332526591       -2.10178810500667        4.50694162118955
H           63.78204109910340       -2.12696564096392        4.52054274474129
H           62.88062204213887       -2.72052456831780        5.92686698858998
H           65.56705873247651        0.45665449567627        4.49804629139165
H           67.46623266915826        0.22057128216319        2.61010112503689
H           67.46152989732407       -0.37802141138202       -2.65510008343349
H           65.55907953738932       -0.61785927129541       -4.53926826040502
H           61.97723898878508        1.91755317239003       -4.51573239161210
H           62.83301978211623        2.55989188841937       -5.92913423829384
H           63.74069931979504        1.96223939931456       -4.52867041849292
H           62.86883819618637        1.11040068739825       -7.77493005821912
H           62.55849075379085       -2.18779982741593       -9.46195956886011
H           63.96488476643127       -1.12012354397777       -9.54893197735982
H           62.33912061092516       -0.43922549411726       -9.66571900043025
H           62.97258887091617       -3.13828723230411       -7.26821720444493
H           62.99918467657129       -4.11305003899607       -5.13296897587754
H           62.09961121645659       -3.19964483929646       -3.90844985637124
H           63.86313882390917       -3.15819137763537       -3.91471018793613
H           60.27284466867768       -0.71508578041755       -4.52210327986914
H           58.37339811207506       -0.49259961061145       -2.63230144673834
Zn          76.41484161741582        0.00485941260633       -0.01322005520999
C           72.96871430742723       -0.02684030465905       -0.02099766150464
C           73.61016114231708        0.13475301787684        1.22447946631984
C           72.93361785202100        0.28662405696285        2.47939339630928
C           73.89112148163323        0.41463571441605        3.43414596585700
C           75.16141998102091        0.34195219573854        2.76887446951527
N           74.95390752051728        0.17181472327440        1.42603417961921
C           76.40404755452445        0.43187117568266        3.39933776481917
C           76.39752107017195        0.61247787741962        4.88123001664797
C           76.39407072583109        1.89850076891044        5.42776362380946
C           76.39780417180991        3.09931928199628        4.51956906070951
C           76.38409267434253        2.05484733855074        6.80924018843206
C           76.37620574593879        0.94940298050593        7.65287398881314
C           76.38383773790217        1.12584049930252        9.14751412562532
C           76.37993384653561       -0.32676696025399        7.09800902643349
C           76.38985546843566       -0.50584850506526        5.72002613611252
C           76.38978536173495       -1.88919288401302        5.12571994517528
C           77.65107714809612        0.36764107754038        2.77358966226123
C           78.91712354526662        0.46368160043185        3.44433847640693
C           79.88083731344746        0.35434570159491        2.49376564631197
N           77.86689960851550        0.20254279850442        1.43194490884986
C           79.21275530372377        0.18992092235531        1.23552189803939
C           79.86150170465146        0.02901253211792       -0.00459815386249
C           79.22134200847066       -0.13857790185395       -1.24836428463817
C           79.89779062730568       -0.29270050367109       -2.50344282637919
C           78.94035032840749       -0.41404490059529       -3.45882504742340
C           77.66984425089012       -0.33613646974397       -2.79413112901068
N           77.87678978404378       -0.16904009788575       -1.45144653270233
C           76.42713193444177       -0.41906084247550       -3.42630309375936
C           76.43379334317919       -0.59991783465371       -4.90816925504129
C           76.42943116001656        0.51795095701568       -5.74747831736013
C           76.41783362294792        1.90150363256848       -5.15375535274797
C           76.43678168777447        0.33831049967935       -7.12548097573118
C           76.44762882814359       -0.93799250527895       -7.67973506542850
C           76.47632247642188       -1.11572442423226       -9.17396209949047
C           76.45236425592070       -2.04309808944347       -6.83550071563025
C           76.44519957788123       -1.88620540850138       -5.45414482050605
C           76.44816826456398       -3.08672071610561       -4.54554691634729
C           75.18016053330786       -0.34983092868207       -2.80197635138153
C           73.91427958581794       -0.44221708269263       -3.47309894363458
C           72.95049470861568       -0.33388440479250       -2.52220235478223
C           73.61875000553518       -0.17390338475427       -1.26384023987460
N           74.96379297349804       -0.18656547024072       -1.45954714820149
H           71.86256711917875        0.29397161920106        2.60569446042465
H           73.75686767253279        0.54774620657981        4.49584441846509
H           77.28227495924040        3.08751403259327        3.87970675248768
H           76.39532984866358        4.02413131392792        5.09571236328696
H           75.51825935198728        3.08711908412428        3.87285802664676
H           76.38015416112432        3.05398732629174        7.23266560417604
H           77.40317583365956        1.02893647520363        9.52847875658105
H           75.76974037220081        0.36464181073814        9.62999294130435
H           76.00823879433595        2.11060223829665        9.42590534589177
H           76.37286550043748       -1.19474969820101        7.74930565399520
H           75.50461223417810       -2.03328050828402        4.50305714774222
H           77.26863632853041       -2.03003500213713        4.49358450044677
H           76.39496780399064       -2.64909819017602        5.90660709409369
H           79.04382600964803        0.59668176839718        4.50699916232381
H           80.95109175442695        0.38034719240787        2.62425071988154
H           80.96886532641844       -0.30391796451268       -2.62908224870011
H           79.07398326550130       -0.54457049596564       -4.52093029707552
H           75.53782454677516        2.03533154340134       -4.52165982184164
H           76.40615124714597        2.66101191416677       -5.93495451694000
H           77.30180692217087        2.05317629658206       -4.53116699261211
H           76.43287209002034        1.20606075115180       -7.77712951321350
H           76.09371461798284       -2.09637068978648       -9.45736289935147
H           77.50269897592275       -1.03152409827083       -9.53879646459865
H           75.87902966100445       -0.34787754056414       -9.66677930004041
H           76.46050701769292       -3.04236131113470       -7.25856606430697
H           76.47599774889052       -4.01140439304650       -5.12125549662016
H           75.55302679150037       -3.09026335596561       -3.92044782055443
H           77.31645480257426       -3.05913947632354       -3.88438232164259
H           73.78711243017116       -0.57349704116184       -4.53590588765226
H           71.88024611238343       -0.35887113157130       -2.65303103632603
