188
 energy: -327.836751728863 gnorm: 0.000563296433 xtb: 6.5.1 (b24c23e)
C           24.72892779367951        0.11006026857786        0.02459629299113
C           25.34603048911044        1.24046521788607       -0.49570611262844
C           24.70181464319488        2.38701946907820       -1.03938044697480
C           25.66990502209842        3.27162784463894       -1.42401946965482
C           26.93699957058161        2.69867262360619       -1.11735607521674
N           26.69071454929264        1.47087414932457       -0.57110928094397
C           28.20381875355697        3.25379004603979       -1.33272811233626
C           28.24626125042677        4.61952006222024       -1.90950947791389
C           28.88093970134133        4.85261061843684       -3.13026300874224
C           28.91960454380268        6.12553525060745       -3.67741932495501
C           28.32520251727435        7.18755237835592       -2.99976109983491
O           28.34187650860185        8.45068403119497       -3.49784164917718
C           27.69107913596356        6.96945341102458       -1.77806426562229
C           27.65124266531210        5.69384690388695       -1.24347360854853
C           29.41356082292520        2.61706858654210       -1.04439796549804
C           30.71565456852343        3.23828723554064       -1.20740866045929
C           31.62850940328363        2.31602621405320       -0.83795999004784
N           29.55730290953417        1.35121164594345       -0.56408322295395
C           30.88285004638652        1.13737307988756       -0.44145174337619
C           31.50976763724335       -0.04964251028564       -0.01144582831679
C           30.86556526642339       -1.21936877323296        0.43326680815432
C           31.50039611384341       -2.42352593021028        0.83754890122300
C           30.52803177486980       -3.30397371770430        1.22381760716533
C           29.26842861449302       -2.65990563049607        1.07552609052223
N           29.52409267363278       -1.40711787117393        0.58322098283343
C           28.00423958673190       -3.19022346493926        1.35501732141716
C           27.96441996587339       -4.55594275575292        1.93026954702528
C           28.59726619521977       -4.83451256944315        3.14463601647247
C           28.56118113076927       -6.10622375247422        3.68817532029113
C           27.89240885154237       -7.12694414360908        3.01489771659205
O           27.88004124162180       -8.36417087443846        3.57424956701421
C           27.26034779502778       -6.86568286034541        1.80137615091500
C           27.29573800087188       -5.58656402523526        1.26839098397860
C           26.79381714729262       -2.52449552662199        1.13176524133931
C           25.48732093059162       -3.06161958992246        1.47852263225520
C           24.58105594104361       -2.13800938734360        1.09916667352231
C           25.33317186225738       -1.03188939825186        0.53402995989077
N           26.66230320393563       -1.29504933930053        0.57972335134193
H           23.64372652646493        0.13142289970850        0.03171621998986
H           23.63335789920486        2.50470555525138       -1.12563470016895
H           25.52469646618291        4.23374771672338       -1.88793516777981
H           27.41207271554282        0.82455165158733       -0.26921385151478
H           29.33297326358707        4.02460256652722       -3.66483686730175
H           29.40847901611746        6.29901476596215       -4.63008322502411
H           28.81170065873782        8.49056560151951       -4.34164670593448
H           27.23776331012563        7.80523319871942       -1.25953444441096
H           27.17094798289355        5.52833888196364       -0.28548143201842
H           30.88613655163374        4.24848910753778       -1.54278835749058
H           32.70307871029674        2.40326101142198       -0.81824560495216
H           32.56582804267276       -2.58781376826911        0.82546451977127
H           30.66764609870005       -4.31475859230902        1.57082521730929
H           28.80724041045938       -0.72415787683181        0.36120884636483
H           29.10499675979666       -4.03776465473075        3.67683090595385
H           29.04433689388201       -6.32222924568963        4.63304860658168
H           27.38365386192510       -8.99144502149974        3.03178232309261
H           26.74526214360965       -7.66424247908677        1.27822667053874
H           26.81542304161352       -5.38858382888102        0.31665813052169
H           25.31234967165929       -4.01053871543509        1.95958131242922
H           23.50646916254166       -2.16907726671852        1.18969697510074
C           63.48977903155302       -0.03264850453280        0.08796269162261
C           62.86493848757878       -1.07650048715126        0.75817802988593
C           63.50119062557523       -2.16243851216670        1.42235885284556
C           62.52733514344389       -2.95788470180520        1.95757065020048
C           61.26452490448160       -2.37786555049099        1.64640815845819
N           61.51904737659324       -1.25249910956986        0.91474886918510
C           59.99427929563564       -2.85391898954601        1.99138262507417
C           59.94386287492140       -4.08499596672211        2.81722067945576
C           59.30654934602986       -5.23148280176824        2.34117793900202
C           59.26049808762410       -6.38632574695914        3.10635969865686
C           59.85038423830273       -6.40350821778325        4.36814576235601
O           59.82641223463062       -7.51204007366287        5.15204110644173
C           60.48754181271187       -5.26455226461526        4.85702861726577
C           60.53447791791862       -4.11868245423088        4.08286168867131
C           58.78855666400101       -2.25609900775477        1.61597104457100
C           57.48286407210473       -2.73025906689109        2.03843505634948
C           56.57571414642943       -1.90560812705722        1.47530117504188
N           58.65251131654545       -1.15254711538083        0.83032034645723
C           57.32834321127967       -0.92317821762849        0.71955109994780
C           56.70853592576408        0.10778076518177       -0.01492832270567
C           57.35899423179457        1.12730636097067       -0.73435683981885
C           56.72988813142844        2.14290650671462       -1.50218519004652
C           57.70804553051060        2.93556723068709       -2.03558286151732
C           58.96606802724940        2.43326265795617       -1.60106330235084
N           58.70293734622005        1.33514960355632       -0.82506703873271
C           60.23496228522161        2.93326401419604       -1.91283153961587
C           60.28579668523956        4.15806017331934       -2.74664136641940
C           59.68507027130190        5.34211496757333       -2.31113778269712
C           59.73249528287499        6.48798728099593       -3.08503248922489
C           60.38049508936214        6.46271591269430       -4.31865885712939
O           60.40485656152050        7.60368785982697       -5.05447820715507
C           60.98059184888520        5.28874228852402       -4.76816616602380
C           60.93399765740514        4.14773608122509       -3.98247727551065
C           61.44193146167279        2.36051748429492       -1.49616960916175
C           62.75416503161809        2.92231686128852       -1.77593891369814
C           63.65447516163721        2.08736935877931       -1.21870800649817
C           62.89335956435168        1.02351556128397       -0.58829089499347
N           61.56483677736741        1.22576280110899       -0.76777785835154
H           64.57496635886088       -0.05185409333602        0.10112442024260
H           64.56852200857389       -2.30837959861561        1.47138200906796
H           62.66585699918573       -3.87188915912819        2.51200285106474
H           60.80212756031014       -0.64087974338491        0.53896848653638
H           58.85820449197068       -5.22351492402295        1.35395326945845
H           58.76933796655179       -7.27638773124030        2.72793220243191
H           59.35506423274900       -8.23788485472451        4.72156028027622
H           60.93759195418649       -5.29040852779083        5.84175272283059
H           61.01717245131150       -3.22853522727902        4.47076568349647
H           57.30618171338997       -3.57027637543256        2.69050287889553
H           55.50083825691621       -1.93228028133014        1.55639753676235
H           55.66398116977731        2.24169580005266       -1.63022074136745
H           57.57321666734239        3.78672439831434       -2.68281879012025
H           59.41675563116492        0.75858870668586       -0.39185861842991
H           59.19396104128769        5.36732013067292       -1.34471387262059
H           59.27427419342451        7.40876127101668       -2.74578488540484
H           60.88502833798788        7.47817856015700       -5.88380826150052
H           61.47969431968653        5.27212550017782       -5.73114244540787
H           61.38935937411987        3.23107894098312       -4.34039297236444
H           62.93691798685040        3.83926937431035       -2.31283703604657
H           64.73062281523551        2.16298835676103       -1.20951250867948
C           36.71173371517692       -0.13493309045837       -0.03127178771932
C           35.48364077465111       -0.12410569326290       -0.02906728835476
C           34.13911431702157       -0.10792387857296       -0.02588040093446
C           32.91569044305989       -0.08020944244219       -0.01980836011599
C           38.05624509288547       -0.13465009264041       -0.02782849126561
C           39.28010362354539       -0.12673354246512       -0.02171487417937
C           52.73334621282434        0.14197868506947       -0.06675295319819
C           51.50541585664680        0.13537114951450       -0.07160298647724
C           50.16043781239870        0.11919414888836       -0.07675539009520
C           48.93700833507561        0.09405547329510       -0.07975148926138
C           54.07848156581832        0.14042269048742       -0.05369424499614
C           55.30188788520970        0.12920440627047       -0.03950648964691
C           40.68549088175859       -0.10974935268910       -0.01070654707502
C           41.33008735299523       -1.20780985069422       -0.61103237206796
C           40.69773334622779       -2.30733097065142       -1.24698372252740
C           41.67564124474814       -3.13568086029102       -1.72568641462638
C           42.93492268969877       -2.56937778539063       -1.38738412234341
N           42.67470386419761       -1.40370061417736       -0.71738678031357
C           44.20290891157536       -3.07337975412140       -1.70219144646334
C           44.23875284293628       -4.37264463475975       -2.41774858938112
C           44.81583979372085       -4.46854760844666       -3.68457198804913
C           44.84634877241815       -5.67886960062011       -4.35954776921544
C           44.30167440359010       -6.81536517368264       -3.76618067679636
O           44.31248461381720       -8.02110134496135       -4.39042607530778
C           43.72499192328046       -6.73419458251356       -2.50000764484342
C           43.69282200844991       -5.52016648061373       -1.83712341587664
C           45.41655141866048       -2.45284255162249       -1.39901297961586
C           46.71588803201753       -3.03452727841718       -1.68497705270602
C           47.63586016949539       -2.15527650492152       -1.23712023273114
N           45.56924357514931       -1.25149568254870       -0.77711123611773
C           46.89765589786625       -1.04413398690834       -0.67002839157186
C           47.53101734730511        0.06765911511800       -0.08044840907416
C           46.88659265667602        1.15734930691342        0.53512935113450
C           47.51982100577410        2.24845132914149        1.18494080617943
C           46.54272554825263        3.06648757824286        1.68244412804844
C           45.28302598320253        2.50375000116291        1.34009176210460
N           45.54218819990545        1.34928358767758        0.65040443769914
C           44.01521579565276        3.00303922336440        1.66211201887501
C           43.97581213202820        4.28478208799246        2.40836499238807
C           44.52025594171502        5.44879185192294        1.86049842052773
C           44.48078870461676        6.64467371316274        2.55538084714897
C           43.89852699237784        6.69042326172720        3.82076553457066
O           43.88052834280074        7.87920391646618        4.47631646041283
C           43.35515475839951        5.53688944054045        4.38156382382937
C           43.39257863183165        4.34528810478698        3.67465370876755
C           42.80159532651300        2.39194967964834        1.34067575419414
C           41.50310913212019        2.97838426902379        1.62002815866936
C           40.58250301884559        2.11032757211929        1.15207099436404
C           41.31984477923074        0.99956518480151        0.58323668353223
N           42.64811765627397        1.19821535706700        0.70429295202518
H           39.63061027624176       -2.43546215473871       -1.33089146031423
H           41.53804277708281       -4.05140636268931       -2.27707043994872
H           43.38668570716119       -0.77292006958655       -0.36444855963933
H           45.22829248692931       -3.58210188819110       -4.15333021045294
H           45.29018893149401       -5.74562139393131       -5.34706394763278
H           44.74136726215033       -7.96676774757642       -5.25490233016346
H           43.30926447753862       -7.62652342294085       -2.04863117622514
H           43.25685123372984       -5.46112599841687       -0.84605964969349
H           46.88093405204415       -3.99364331040112       -2.14847332544778
H           48.71100149330100       -2.23192531829160       -1.26634499374749
H           48.58704909960506        2.37733217911883        1.26593568628708
H           46.68094876043534        3.97330641520005        2.24815907603120
H           44.82965377824931        0.72192631643851        0.29259337070581
H           44.96013461938985        5.41775679832335        0.86991922316557
H           44.89473522033260        7.55030938194278        2.12962817381493
H           43.44972574664489        7.80029127255813        5.33800310700367
H           42.90653546227335        5.57586874002698        5.36835174953270
H           42.98012512042232        3.44534804237605        4.11698568662110
H           41.33954846280778        3.93368642744521        2.09182786591481
H           39.50766649614415        2.19368251615643        1.17069597075929
