126
 energy: -206.767059362484 gnorm: 0.000354590826 xtb: 6.5.1 (b24c23e)
C           12.06452512682274       -0.12916812471243        0.09468402773828
C           12.67625557080180       -0.99786175108810        0.98963762498905
C           12.02589491746033       -1.90576411660755        1.87120100809124
C           12.98888851349064       -2.56533686265093        2.58254964051574
C           14.25855186582463       -2.07343685001864        2.16657438658384
N           14.01915295647007       -1.13896604488583        1.19871223917865
C           15.52204240854481       -2.46519538553246        2.62610115138195
C           15.55458226879508       -3.47246468999411        3.71242966525257
C           16.20623741981537       -4.69520403914086        3.53237471778505
C           16.23460826782461       -5.63992368321007        4.54266480744119
C           15.62008230321189       -5.37414340631806        5.76906882096006
N           15.61281184356644       -6.33182430015071        6.76861475125968
C           14.96179094821928       -4.15599374460563        5.95579275465810
C           14.93039207053724       -3.22054104848698        4.93677176752762
C           16.73506277012041       -1.97350702213698        2.13597184176420
C           18.03397621699983       -2.34130365034070        2.66907814676729
C           18.95093090876006       -1.66996982511313        1.94112690993171
N           16.88465387538659       -1.07872541606358        1.12014193131795
C           18.21071582624462       -0.88446582203106        0.97342574713263
C           18.84381983142904       -0.05228781267558        0.02745783485101
C           18.20583555396575        0.78221050248118       -0.91047034162358
C           18.84920065695296        1.59884411884406       -1.87728073573884
C           17.88172942960166        2.26393668831906       -2.57914562741282
C           16.61683157054543        1.87953588378230       -2.05538187405299
N           16.86471799524227        0.97558707699605       -1.05569591038749
C           15.35442411774222        2.30855094210235       -2.48126717647668
C           15.32022296007188        3.32800926723330       -3.55546034289650
C           14.67472136435636        3.06711352437961       -4.76687713648699
C           14.64079082936018        4.01710972730734       -5.77206475864566
C           15.24243324762240        5.26349251011572       -5.57988894977552
N           15.24215199498495        6.20312660485124       -6.59651999979982
C           15.89551041566287        5.53042582066881       -4.37389363589075
C           15.93339571099463        4.57092693152915       -3.37779678811063
C           14.14026720180611        1.84393873828642       -1.96277972981257
C           12.83381180573812        2.33348977784228       -2.37329875935152
C           11.92369808609769        1.64478995780021       -1.65477672337899
C           12.67317310572549        0.74574803047955       -0.79578952986638
N           14.00424614528712        0.89881114167078       -1.00241046725335
H           10.97909702624046       -0.14090259819232        0.10037836582484
H           10.95714885451615       -2.03383641669757        1.93779928656972
H           12.83809191104658       -3.33389852261558        3.32317944106030
H           14.74468840077139       -0.63100352712788        0.70387202027856
H           16.67717542894417       -4.91327620572704        2.58013043730427
H           16.73458119542862       -6.58965742780613        4.38681215112512
H           15.45776864197872       -5.97520845706573        7.69803416397125
H           16.35463718944065       -7.01122904843808        6.71228649663519
H           14.48000927223566       -3.94495620083402        6.90432499117476
H           14.43504370776248       -2.26911250108906        5.09774552704572
H           18.20103338676583       -3.00959556948302        3.49832334622907
H           20.02498106331824       -1.68065540711797        2.03715920307762
H           19.91677792999668        1.65876965780832       -2.01527645180456
H           18.02871395653906        2.95109061817987       -3.39636878014687
H           16.14225399829662        0.51401278656077       -0.51288022975899
H           14.21377642866863        2.09872935847498       -4.92777962616814
H           14.14615313546128        3.79836940564287       -6.71216029615620
H           14.50411131116896        6.09622479267810       -7.27405981946769
H           15.38357537641065        7.15448087421816       -6.29631934984327
H           16.36788126051092        6.49457762490300       -4.22011848406182
H           16.42484347383026        4.79405965103779       -2.43697650296776
H           12.66043195676798        3.10897290702088       -3.10209367521283
H           10.84779487765265        1.72338082876520       -1.67452970419915
C           32.22876617271665        0.06531407387401       -0.14506351498920
C           31.61725871759887        0.73935240416732       -1.19459924569250
C           32.26780507317936        1.39307800614957       -2.27803562382355
C           31.30477484902561        1.93283324032948       -3.08403108516535
C           30.03489665158969        1.63607878606283       -2.51274609126510
N           30.27424183186732        0.90740389805443       -1.38180761144480
C           28.77145199348530        1.99014846636133       -3.00185467123107
C           28.73951160435486        2.81686556103412       -4.23137134704950
C           28.09630215494967        2.35793595318003       -5.38360238844804
C           28.06895302743849        3.12532049930570       -6.53445819103330
C           28.67559418278948        4.38387849485953       -6.55298351233853
N           28.68387011694948        5.13818578647283       -7.71373691588359
C           29.32526617871686        4.84830686390638       -5.40654607456373
C           29.35606670325874        4.07019875459199       -4.26284459016712
C           27.55814102034456        1.62359103544540       -2.41309357866338
C           26.25931963687774        2.05478962229699       -2.89660464455396
C           25.34198038220930        1.50152389725667       -2.07577409389165
N           27.40805353630101        0.84235757507576       -1.30761880946264
C           26.08184236486823        0.74340171156445       -1.08618689019139
C           25.44842627606432        0.01616497908573       -0.05755047419395
C           26.08616908630309       -0.70364385443061        0.97114118889227
C           25.44263874374675       -1.45457876905458        1.98973568628402
C           26.41012077414466       -1.98643460766063        2.79720978505137
C           27.67524430601871       -1.56838073639728        2.30041672092006
N           27.42740607380013       -0.80302359402793        1.19103513230458
C           28.93757804185141       -1.88808490225063        2.81353981760229
C           28.97108286217410       -2.70004165693320        4.05220717585407
C           29.60963368819568       -3.94255707483336        4.07478297567706
C           29.64248783066456       -4.70270333923091        5.23031275252044
C           29.04701441458359       -4.22576030055467        6.40089745953081
N           29.04624230932648       -4.99912743448118        7.54913882475654
C           28.40092027591066       -2.98702684176916        6.38540310600034
C           28.36385675009097       -2.23799150694678        5.22271716847068
C           30.15203079539407       -1.49232039156513        2.24152355753460
C           31.45835595711310       -1.78398179743378        2.81027176479969
C           32.36882243066260       -1.24024099950747        1.97706025545045
C           31.61974057801952       -0.60520509708634        0.90770910539921
N           30.28853852703869       -0.77080308065976        1.10361813121573
H           33.31419824348701        0.06960525696886       -0.15659552040618
H           33.33670287063264        1.43186693826456       -2.41590354865760
H           31.45562572038597        2.47961059737439       -4.00067142240652
H           29.54865805848866        0.53943087821401       -0.77566642350467
H           27.63122415047982        1.37823877510415       -5.38037494121812
H           27.57584418280518        2.75333986209591       -7.42593926975713
H           28.83175577365772        6.12548491684087       -7.57801774001483
H           27.94654807977337        4.92343016790816       -8.36589366252292
H           29.80085121240476        5.82303577664913       -5.41550526233079
H           29.84489437309636        4.44719584373063       -3.37098446077338
H           26.09274897179377        2.70558610918274       -3.73975196745661
H           24.26785611996898        1.59109506665553       -2.10979234723054
H           24.37492407989633       -1.57251739157385        2.08154821879443
H           26.26306575100231       -2.62282689529763        3.65454235612634
H           28.14992193797579       -0.38255901472279        0.61585779185991
H           30.06592745397626       -4.32426136572367        3.16801837607179
H           30.13151791635737       -5.67076149370401        5.23208652661019
H           29.78059983683268       -5.68718890128316        7.59871568414039
H           28.91054529232375       -4.48726424560979        8.40632274040804
H           27.93329310704233       -2.61306434692454        7.28975108501554
H           27.87774112881504       -1.26837920721269        5.22487670775735
H           31.63136782190683       -2.31996751648103        3.72970663103274
H           33.44476381371667       -1.24325824260326        2.05755235785701
C           21.47166796645461       -0.02855710645909       -0.00783305737200
C           20.24943149443419       -0.04087926858652        0.00934842099820
C           22.82064295507129       -0.01389913355484       -0.02544487031280
C           24.04281888179211        0.00133604443931       -0.04259545556769
