164
 energy: -284.586216845435 gnorm: 0.000776935609 xtb: 6.5.1 (b24c23e)
C           16.52980764109372       -0.06413261025443       -0.00310811870856
C           17.15493510660177       -1.30308370566746       -0.06529968750685
C           16.54140476252169       -2.58718165120222       -0.12945533392361
C           17.53382128738467       -3.52539678263847       -0.17744968822309
C           18.78467690913251       -2.84441783467734       -0.14393818763290
N           18.50499721609127       -1.51014985856764       -0.07663205844727
C           20.05378226572677       -3.41080541910363       -0.17231602907092
C           21.27263064310823       -2.74904680307921       -0.13766934196349
C           22.55202899023048       -3.43536559745571       -0.16984492749283
C           23.50012027858355       -2.47687392990124       -0.11980492307397
N           21.46377572445118       -1.40321633505240       -0.06967638608804
C           22.79598528503044       -1.20854675023168       -0.05767317505491
C           23.44967622399208        0.04013967007650        0.00402369937760
C           22.79897473777899        1.28716146590344        0.06264145877070
C           23.40721553855160        2.57007963842878        0.12405237590239
C           22.41098866682557        3.50614215270755        0.16726214114697
C           21.16432611756083        2.82088906633048        0.13392485908345
N           21.45139232628003        1.48393257219797        0.07074796468426
C           19.89647039099162        3.38804826526445        0.16081272918943
C           18.67656071616766        2.72368568798415        0.12987881515282
C           17.39087646910593        3.40367230924834        0.16396352381704
C           16.44878588993089        2.44036339064708        0.11891833865930
C           17.15981921128906        1.17323959467670        0.05690641685130
N           18.49775937744115        1.38344643993635        0.06554090052247
H           15.44498091094713       -0.07249734574492       -0.00245351098843
H           15.47621493294221       -2.75558460219874       -0.13715831750703
H           17.42341394356147       -4.59686754261871       -0.23134095109751
H           19.19950562695695       -0.77160951118993       -0.03994769700750
H           20.08577971524863       -4.49429529283888       -0.22698209056498
H           22.67431426542391       -4.50579872114708       -0.22356752860333
H           24.57295044099116       -2.58651859746711       -0.12338329442087
H           24.47165397873500        2.74180193113841        0.13320687413846
H           22.51830692462795        4.57793981680472        0.21794630199777
H           20.75942514350563        0.74265121275824        0.03499455383584
H           19.86578060659350        4.47165975076188        0.21223107567190
H           17.26311940510925        4.47374304597232        0.21562886502361
H           15.37477029331786        2.54252859301175        0.12523631889432
C           71.85811004418710        0.04696270512459       -0.01419598549387
C           71.23981866600663        1.27251933720013       -0.22720709991937
C           71.86052994443475        2.53515910732141       -0.45062259516916
C           70.87340860955489        3.46675075938653       -0.60923006329892
C           69.61873351948454        2.80292708980783       -0.48809552134647
N           69.89094085111239        1.48514036768634       -0.25915105578869
C           68.35284681144219        3.36952259349208       -0.58161980114706
C           67.13025157273833        2.72388922471204       -0.46657043354189
C           65.85463399679529        3.40829433582231       -0.58234102114862
C           64.90122736809144        2.46750312140290       -0.42086101398056
N           66.93165493006151        1.39695854071762       -0.23829767451225
C           65.59834760666675        1.21203464368400       -0.20620927162706
C           64.93815227001882       -0.01694504815737        0.00290839027111
C           65.58219548959758       -1.25013856269313        0.21860285651354
C           64.96666513649193       -2.51181701664478        0.43987957334638
C           65.95751355513309       -3.43979983697981        0.60584742209108
C           67.20802777812918       -2.77079627745954        0.48985600555823
N           66.92860832630598       -1.45115443466190        0.25669801484752
C           68.47260336962468       -3.33699608297146        0.59014316838089
C           69.69616839169588       -2.68898701258530        0.47423456277682
C           70.97807232452860       -3.36692541708070        0.59084021520025
C           71.92543257267126       -2.42282671902729        0.42136578772015
C           71.22136042873102       -1.16934809665411        0.20202298730354
N           69.88230633258324       -1.36869462908494        0.24071786405537
H           72.94296296940863        0.04868475109282       -0.01810959770020
H           72.92664605840976        2.69454350241474       -0.48299728048667
H           70.98987404419968        4.52281851667970       -0.79443953987554
H           69.19227995943336        0.76108578471254       -0.12978049994806
H           68.32699905388029        4.43865658541621       -0.76670608216558
H           65.73830377599319        4.46539896563517       -0.76310373527915
H           63.82899246208175        2.58147982596037       -0.43952282812463
H           63.90128167177234       -2.67555163604265        0.46699721731001
H           65.84406449007997       -4.49582140941159        0.79233105919530
H           67.62480431920494       -0.72397497216897        0.12977743857128
H           68.49714405571845       -4.40544160972116        0.77885417205056
H           71.09990355456641       -4.42266699939303        0.77687598145242
H           72.99886416691561       -2.52994292243465        0.43732374706577
C           28.65023364918378        0.07070111806798        0.00540887654921
C           27.42150190023926        0.06792830336478        0.00673869448443
C           26.07776274467063        0.06228705465150        0.00520611942778
C           24.85350723966365        0.05357311911297        0.00794883427148
C           29.99379141103764        0.07070720134180        0.00448614658981
C           31.21825434092800        0.06874873744782        0.00150790114034
C           44.80853040972481       -0.00771668608598       -0.00671476744894
C           43.57954501287878       -0.00240429534475       -0.00560133474109
C           42.23625629027816        0.00442358309911       -0.00527759991085
C           41.01165064056999        0.01091737752727       -0.00222922265800
C           46.15179638257661       -0.01494775894933       -0.00962850000469
C           47.37640536853455       -0.02227133153107       -0.00956999305853
C           60.96637156571190       -0.04922820155546       -0.01062776562176
C           59.73768614241665       -0.06055146211687       -0.01577065900471
C           58.39408445105180       -0.06781717133824       -0.01514019614348
C           57.16962094269363       -0.07115286394147       -0.01016205780755
C           62.31010032997059       -0.03861987367235       -0.00697283996072
C           63.53425866032318       -0.02614279189814       -0.00128201654764
C           32.62112865662179        0.06464747646861        0.00105195506315
C           33.26685903513566        1.31644871774568       -0.00969237753907
C           32.65804235933386        2.59915026315595       -0.02237526848539
C           33.65516199233335        3.53660042165890       -0.02955771370570
C           34.90065315698040        2.85080946030034       -0.02145812034965
N           34.61452423636688        1.51310205039155       -0.00976831895670
C           36.16846791293817        3.42279232256489       -0.02483715541029
C           37.39537071703374        2.77747255876591       -0.01869800801290
C           38.66467614702936        3.48298435851780       -0.02489669303872
C           39.62686281608361        2.53713891715425       -0.01828596859947
N           37.60628857066753        1.43280820537689       -0.00751625829779
C           38.94124966034484        1.25793789100040       -0.00709806556954
C           39.60906587946783        0.01528023217308        0.00361046677634
C           38.96332831729818       -1.23658148130763        0.01843689383935
C           39.57214868725283       -2.51933709214210        0.03356744629500
C           38.57503937801582       -3.45665853209108        0.04518815363815
C           37.32948919934264       -2.77084274043109        0.03668980591300
N           37.61575596949806       -1.43307498141165        0.02110248104440
C           36.06181750029428       -3.34267556422069        0.04131205738456
C           34.83476046772328       -2.69730537268735        0.03147178234465
C           33.56553367562549       -3.40291124250292        0.03553212247919
C           32.60328131722331       -2.45718415656131        0.02382510269117
C           33.28874205179932       -1.17794122309014        0.01288634113443
N           34.62393942792423       -1.35283259115190        0.01733685361583
H           31.59364221787036        2.77103612525110       -0.02572008807084
H           33.54767512912404        4.60951637516171       -0.03974660337744
H           35.30344007356678        0.76811914805135       -0.00189684645607
H           36.18936157317574        4.50813601234128       -0.03402854202263
H           38.77126068725431        4.55640920077599       -0.03334077133028
H           40.69805077754603        2.66199405287382       -0.01990075397751
H           40.63652632181644       -2.69131365630983        0.03567315169902
H           38.68246806829324       -4.52954269405790        0.05832474583406
H           36.92685202581264       -0.68810129158357        0.01223501430415
H           36.04080450966802       -4.42798538239842        0.05348400046189
H           33.45901420815156       -4.47631832318248        0.04578282210349
H           31.53213728779727       -2.58220215048047        0.02236820206288
C           48.77900125081090       -0.02580687234186       -0.00403040753748
C           49.42370093656540        1.22648300006160       -0.02533306346614
C           48.81382074492389        2.50863296899785       -0.04739890205379
C           49.81015653385580        3.44673141613714       -0.06171053907784
C           51.05624007851281        2.76196749162448       -0.04994286368545
N           50.77109823655419        1.42406288027528       -0.02764617349035
C           52.32343758829500        3.33470615376725       -0.06110488885838
C           53.55091051722862        2.69015320485586       -0.05375300645106
C           54.81960697232972        3.39648665872492       -0.07100852769549
C           55.78250064745492        2.45145253501993       -0.05867090042766
N           53.76264151996880        1.34593909696579       -0.03088406733981
C           55.09794014789002        1.17191825186726       -0.03289088991576
C           55.76671622959390       -0.06987712613114       -0.00880005819863
C           55.12229938100918       -1.32196595355230        0.02175481663415
C           55.73212940090276       -2.60393725883101        0.05041501635380
C           54.73574076642851       -3.54189359397299        0.07438179389234
C           53.48967977458876       -2.85718576762593        0.06068637186518
N           53.77477081045951       -1.51959577761804        0.02910060329004
C           52.22227363647536       -3.42995178284206        0.07419668897326
C           50.99486389137311       -2.78570498355348        0.05819691016060
C           49.72607658391649       -3.49209316122419        0.07079377656674
C           48.76317563266770       -2.54723761343351        0.04731729336627
C           49.44780610053774       -1.26771287334383        0.02177134203817
N           50.78291077887620       -1.44149122051977        0.02844495945412
H           47.74931013101153        2.67974283190953       -0.05106089406977
H           49.70187564743894        4.51946392039623       -0.07931324373242
H           51.46063141932243        0.67973076683668       -0.01461408803855
H           52.34367304526152        4.41994627286110       -0.07898357221443
H           54.92538329773455        4.46983896435268       -0.09017327125220
H           56.85353996883552        2.57714862841292       -0.06541786163995
H           56.79666725794652       -2.77500433927092        0.05203109048487
H           54.84405929493137       -4.61448908340263        0.09921013530398
H           53.08526244189644       -0.77529042127920        0.01322999750695
H           52.20216114503881       -4.51506653808401        0.09902967069789
H           49.62028979940840       -4.56537829399602        0.09409505741472
H           47.69207945469515       -2.67290354299251        0.04733190164596
