203
 energy: -405.086547525332 gnorm: 0.000496444188 xtb: 6.5.1 (b24c23e)
Zn          31.42197092574462        0.05496893527374        0.01326120156156
C           28.01449476520566        0.10405232159524        0.06048932354647
C           28.64512891082846       -0.20253448694152        1.26015953453918
C           27.97196945101482       -0.52430638272711        2.48774105643631
C           28.93129527617392       -0.75938866685954        3.41697536269508
C           30.20375310314641       -0.57228317414975        2.77032000694364
N           29.99481306138912       -0.24570386770710        1.46279279498212
C           31.45634982948242       -0.72523208828971        3.37685373026770
C           31.47473710417642       -1.06942865325019        4.81989938426210
C           30.92895876091410       -0.19476163351006        5.76292719524078
C           30.95415051426878       -0.50879790806046        7.11177177811607
C           31.52464200146596       -1.70871471712669        7.50479941065135
S           31.57129029119472       -2.10724494891284        9.21085783145486
O           31.50103773164659       -0.92160386482764       10.01336368760353
O           30.14301501642552       -2.87522562620033        9.31367983225453
O           32.60881780931489       -3.05780264870380        9.48532744169812
C           32.07304126822569       -2.59723930261946        6.59404254304583
C           32.04666727626136       -2.27027949524817        5.24849822908630
C           32.69573215849434       -0.58279784881805        2.74242054805514
C           33.97612433012952       -0.68234470820300        3.38804963609845
C           34.92065998973834       -0.47152009415938        2.43670959525253
N           32.88640970027455       -0.29871443517973        1.41747549078000
C           34.22834334315871       -0.23345986034220        1.20403035879003
C           34.85666651177321        0.01631736482427       -0.03147351111179
C           34.20237465986995        0.27612930440588       -1.25125287830103
C           34.86745947029443        0.49172877258440       -2.50281898636590
C           33.90319616582543        0.71636515824294       -3.43107980589131
C           32.63817521765661        0.65007710367550       -2.75175868167455
N           32.85710021648674        0.36964141657990       -1.43041889805428
C           31.38595572844460        0.81959344486174       -3.35374222796238
C           31.37281492486922        1.15078519927355       -4.79976355686560
C           30.76821886735219        0.28775221536957       -5.71726348687552
C           30.75929302360494        0.59070620644372       -7.06891197499536
C           31.35841042453302        1.76644223791021       -7.49084667160178
S           31.34492771140452        2.16058597218713       -9.19898632735233
O           31.46977934025802        3.57471452867766       -9.40395267779020
O           32.76058129285931        1.48129655031431       -9.61692659826137
O           30.28704811070542        1.46155554604918       -9.86538379713427
C           31.95960737528845        2.64619385030529       -6.60506982026967
C           31.96567434072453        2.33104521665080       -5.25653618824524
C           30.14681162003103        0.70595767477521       -2.71170470637806
C           28.86282085892105        0.92888661553280       -3.32341888416815
C           27.92336005551302        0.72766458797362       -2.36645430110971
C           28.62061990103104        0.38997320568310       -1.15674050910949
N           29.96485339766664        0.39149176889176       -1.39716122360592
H           26.92917584409006        0.12080926391312        0.07555389471112
H           26.90110241252271       -0.56980326732752        2.60887942699359
H           28.79475418114268       -1.04535092651908        4.44761633915838
H           30.49985495811072        0.74520329049056        5.43593131202717
H           30.54575598581819        0.16780148171254        7.85191611462126
H           30.00282453667470       -3.19845295223702       10.21195012188656
H           32.51542814662641       -3.52426372786901        6.93653001681745
H           32.46192322091707       -2.95550161894432        4.51866136145735
H           34.13115653082396       -0.87478394481598        4.43738852646522
H           35.99266768175350       -0.46931964265775        2.55295062379623
H           35.93583872319529        0.46524671844546       -2.64656734370117
H           34.03518641643073        0.89783984997145       -4.48554360493257
H           30.31625019260188       -0.63341490012095       -5.36830356598613
H           30.29402142948025       -0.07160621601453       -7.78807561097848
H           33.05455925908602        1.82451643228384      -10.46937511654384
H           32.40745135924631        3.56287984834809       -6.96778000155629
H           32.41982896663171        3.01146124957004       -4.54562548541235
H           28.70569158562825        1.21488382657246       -4.35107945785989
H           26.85143805673883        0.80562876968082       -2.45787822615080
Zn          63.52408152761823        0.04411930633373       -0.00482252669488
C           66.93186123322317        0.12389756945174       -0.02902505518588
C           66.30099083310793        0.27819165638008       -1.25744828551747
C           66.97397577690752        0.43659968579488       -2.51664584046830
C           66.01446015431713        0.55420837770594       -3.46772501907664
C           64.74202315039808        0.48010882032078       -2.79858044777158
N           64.95123123547577        0.30348450376743       -1.46263066182078
C           63.48938329392647        0.54964904859702       -3.42025914894072
C           63.47150354031096        0.76374623417716       -4.88827311708417
C           64.00683780767206        1.93123700019302       -5.43842440827271
C           63.98167250964350        2.14020521175955       -6.80746660611477
C           63.42183963412944        1.16642946935542       -7.61867375102644
S           63.37430572856313        1.43001729589937       -9.35070024700890
O           63.43048720341289        2.82982213370374       -9.65363544385655
O           64.80883410285183        0.76819025085259       -9.73093670026281
O           62.34573395979783        0.63930815268729       -9.96100137786685
C           62.88448398976328       -0.00223370137556       -7.10369646350293
C           62.91071238920169       -0.19797498658215       -5.73287390439093
C           62.25019254201385        0.43634727891187       -2.77972614705354
C           60.96926939145415        0.56601542145742       -3.41900443575415
C           60.02497686763997        0.40660626518947       -2.45753966441561
N           62.05976728384083        0.21586566127834       -1.44260781461812
C           60.71778813890722        0.18725697502154       -1.22160504690662
C           60.08959811345421       -0.02443302342753        0.02112982708157
C           60.74400008876411       -0.21525885528033        1.25356765926984
C           60.07918668614858       -0.46663999722329        2.49864768829781
C           61.04368888278043       -0.59412174528840        3.44487743112181
C           62.30859966070695       -0.41087710548168        2.78716086416130
N           62.08927646634152       -0.19262570595932        1.45412056858321
C           63.56108907842371       -0.47460727493078        3.40840956184723
C           63.57683197748418       -0.69960482009233        4.87477303037346
C           64.17981561162982       -1.84235193938575        5.40654461951326
C           64.19461575313895       -2.05915981520766        6.77454665377917
C           63.60297361643101       -1.11953215916583        7.60303986302212
S           63.62609052172837       -1.38224761264808        9.33621474502833
O           63.51064831239124       -0.14263831900917       10.04857538000789
O           62.20813721437145       -2.16170824011936        9.48459436310863
O           64.68288202416691       -2.28171234273332        9.69105697764505
C           63.00285688903899        0.02659842223571        7.10682313405279
C           62.99073432223258        0.23086259796403        5.73707249039429
C           64.80005021579375       -0.34426662582777        2.76909137196394
C           66.08392161876293       -0.35966517689854        3.42023196189600
C           67.02322496120537       -0.19176716431243        2.45671692941411
C           66.32595750589792       -0.06187669242748        1.20752679620801
N           64.98186831078498       -0.15271820742101        1.43117535176565
H           68.01706964163729        0.15027413979976       -0.03632324239530
H           68.04489793824500        0.44653308802897       -2.64521878793220
H           66.15097549122375        0.66955140086708       -4.53106774452383
H           64.42762324363090        2.68676350187255       -4.78518349738001
H           64.38187287054171        3.04719657349563       -7.24287893827749
H           64.93337516873864        0.77100131109367      -10.68774532607846
H           62.45041445165257       -0.74023506992148       -7.76650487391522
H           62.50405243537995       -1.10935893390043       -5.31024627833643
H           60.81356274297499        0.76747372266097       -4.46654126263496
H           58.95275311434355        0.44060119175752       -2.56654633522863
H           59.01080849429022       -0.54289323859673        2.62337631304102
H           60.91203870928292       -0.80633339505255        4.49363031477427
H           64.62651035752204       -2.57116005421109        4.74027833219304
H           64.65910345181385       -2.94142684379753        7.19665965693574
H           61.91360308610005       -2.14246700184779       10.40315700795198
H           62.56090806235830        0.74660767121066        7.78410126350238
H           62.53768575682349        1.12700047922883        5.32929715034398
H           66.24104901658032       -0.47201815054962        4.48100989165161
H           68.09501087850809       -0.15020546751036        2.57074031840107
C           40.05962278025319       -0.02548568482970       -0.06468959284575
C           38.83202662123232       -0.01537746830731       -0.06260240845921
C           37.48664852184089       -0.00605209240926       -0.05615574860053
C           36.26347912224075        0.00405167784895       -0.04752418628541
C           41.40492632400746       -0.03179121972503       -0.06321590654559
C           42.62827521525865       -0.03607118108770       -0.05693546241516
C           56.11416683509135       -0.06855333826435        0.03417183580253
C           54.88654524971953       -0.07452384319458        0.02683226857338
C           53.54120280722587       -0.07702124576116        0.01948646809015
C           52.31785461263823       -0.07797973035729        0.01036939015859
C           57.45961196363051       -0.06031861308458        0.03349124863243
C           58.68279816877153       -0.04610620788001        0.03100990450892
Zn          47.47337688340101       -0.05447019286452       -0.02909103351449
C           44.03469057372197       -0.04133739949323       -0.04995272894995
C           44.67761411624238        1.03591323162657        0.59064841423848
C           43.99976848356573        2.11142316669036        1.25269342785268
C           44.95551116915826        2.94904846498796        1.72951005165948
C           46.22726630684034        2.39558667614352        1.35482883675443
N           46.02181314257665        1.22746522463592        0.67220250249987
C           47.47417519801832        2.95022129738801        1.66347250432092
C           47.47414852579004        4.24500413920121        2.38887874231449
C           48.03384597179238        4.33800278483939        3.66554350256464
C           48.03591130336974        5.54387636854545        4.34717277532317
C           47.47577181446175        6.65389422567446        3.73614098046078
S           47.48743209073504        8.18691739321277        4.58684538322981
O           47.42577122381910        9.28728390053765        3.66896510294879
O           46.03766617838225        8.07549572637110        5.31131701382534
O           48.50487175234610        8.19058287105748        5.59499505830229
C           46.91824483200660        6.59482510310261        2.46903026335776
C           46.91756579536823        5.38273853179358        1.79884074642271
C           48.72084298327754        2.39674167459087        1.35154062698675
C           49.99322942079539        3.00203881818206        1.63216880335420
C           50.94827940074698        2.15672692083478        1.16783077634498
N           48.92529127559541        1.20586622030808        0.70909177841726
C           50.26949956740246        1.03370963691698        0.59117806659738
C           50.91137253692320       -0.07151559070894       -0.00105896642205
C           50.26803577437730       -1.16962328480516       -0.60471840229588
C           50.94499214964407       -2.29840356117987       -1.17204306815078
C           49.98943495127858       -3.13241095467875       -1.65542863745438
C           48.71863725924737       -2.51465137268727       -1.39529137878874
N           48.92429543138719       -1.32768949992597       -0.74607064108404
C           47.47180743331386       -3.05520079883737       -1.72916093247731
C           47.47154175018005       -4.34604990508732       -2.46122290052485
C           48.05659770709752       -4.43899376672984       -3.72658253846217
C           48.05885552579007       -5.64112774330768       -4.41475446551775
C           47.47267661112090       -6.74757386941138       -3.82191127655877
S           47.48340425076142       -8.27607125156099       -4.68041041296579
O           47.38705395434678       -9.38003131069813       -3.76991891294710
O           46.05162975251397       -8.14030697140822       -5.43634744444861
O           48.52249708672866       -8.28931490192559       -5.66625401653427
C           46.88950717716539       -6.68863763523881       -2.56637672302897
C           46.88955669734526       -5.48040300653313       -1.88933277078465
C           46.22530665501201       -2.49127530702982       -1.43545182838928
C           44.95382116354686       -3.03358016122719       -1.82711738807151
C           43.99884163394373       -2.19087173758410       -1.35770960070414
C           44.67696247942548       -1.12247508486423       -0.68463943353971
N           46.02056622234679       -1.32379429161135       -0.75147029942715
H           42.92922179059348        2.20356550180904        1.34300107382699
H           44.81359739715570        3.85530592367870        2.29589025294482
H           48.45762583649859        3.45513902022861        4.12978807038642
H           48.46729574959661        5.62686282457487        5.33678182478594
H           45.74963546599395        8.94550066960128        5.61309996074316
H           46.50028949364777        7.48509716344425        2.01606483177480
H           46.49745318300668        5.31750947176565        0.80191513477795
H           50.13628283491687        3.95710824775982        2.11125310459219
H           52.01895755746907        2.27968745403781        1.20215263272095
H           52.01477101244037       -2.43251786427563       -1.18780315495480
H           50.13104603788424       -4.08784037983325       -2.13421003672011
H           48.50023252836409       -3.55876130342134       -4.17708409026794
H           48.51011760252584       -5.72402668358182       -5.39547564711587
H           45.76952003895282       -9.00061724301507       -5.76987967131564
H           46.45141214954583       -7.57621138662360       -2.12738687233347
H           46.45010653166051       -5.41585484768729       -0.90074449317150
H           44.81123183321140       -3.93646099405610       -2.39868649753977
H           42.92873016290631       -2.27510047820843       -1.46015249255091
