236
 energy: -403.478761090920 gnorm: 0.000931072797 xtb: 6.5.1 (b24c23e)
Ni          45.66338103911315        0.52300786226845        0.30608702711188
C           42.27375202685989        0.42413127583191        0.16083483414020
C           42.94317204417100       -0.74349276922854        0.46332433835358
C           42.28420146464767       -1.98046855472539        0.75077492716177
C           43.25591784802977       -2.90874688905175        0.91447881797204
C           44.50800667480216       -2.24035568881278        0.71292234676531
N           44.30617367959118       -0.90330776534427        0.47326017612125
C           45.73892612384125       -2.88292064235192        0.71328078506162
C           45.77912600725713       -4.35587957813193        0.87768720528904
C           45.20317800386165       -5.17861089800165       -0.01123511678356
C           45.21947296007073       -6.67718983917239        0.14226921872589
N           46.21825268056400       -7.09956226372794        1.12794909401229
C           46.63467624928603       -6.24429136494186        2.11435633594154
C           46.48012759956954       -4.91135085926431        2.02643243203870
C           46.93863596731119       -2.19993777270967        0.56003392535165
C           48.21477837268832       -2.84518288227947        0.50373081895854
C           49.14611171878047       -1.86488897299003        0.42132101886122
N           47.08608483964917       -0.83385373286272        0.47619030898272
C           48.43790872656182       -0.62480775489066        0.42198925858383
C           49.07280714750121        0.61853374721817        0.42139810805362
C           48.37099220158531        1.82492433485541        0.38360918387434
C           49.00713503576885        3.10216730940232        0.44166741160879
C           48.02909811380923        4.03060395511450        0.31328225505502
C           46.79750519552172        3.31657075046467        0.16747070980063
N           47.01597598962987        1.95954260061949        0.24493941211850
C           45.57422751368065        3.93264354197542       -0.06226632732845
C           45.53800800770279        5.40857928754064       -0.19851963874619
C           44.84897791998679        6.17529340645343        0.65945524723091
C           44.78586674556622        7.67530695246857        0.53544942932480
N           45.82713700815121        8.17857969838617       -0.36473527588465
C           46.36550618112333        7.37197941155197       -1.33313734951023
C           46.28632169405742        6.03056989666123       -1.28142727182052
C           44.38730339897869        3.21989727377521       -0.16934440061055
C           43.12041684737633        3.81790991884842       -0.47322741828841
C           42.19526443337234        2.83157539606335       -0.41080261754133
C           42.89813936300048        1.63075096482183       -0.07764581212311
N           44.24503748572352        1.86969779501695        0.03606327540157
H           41.19145991001141        0.39245509906845        0.11181798475905
H           41.21459871794676       -2.10211826269982        0.81726337472716
H           43.14799216153861       -3.95414927241222        1.15392363233520
H           44.68072519358816       -4.80163175082154       -0.88275276467435
H           45.46666743301471       -7.15282256065297       -0.81668617279514
H           44.21761586274572       -7.04132985154585        0.43781666300845
H           46.15833749171946       -8.07584901830237        1.37823786363382
H           47.17147231736850       -6.71861051849863        2.92977142456132
H           46.86067931899677       -4.24778334236268        2.78979439464396
H           48.36716857457360       -3.91196736112960        0.52224558642915
H           50.21839191030595       -1.95874991230663        0.36157732938725
H           50.06660665155434        3.25418521751976        0.57008682808453
H           48.12264800700402        5.10428975263696        0.31654596711119
H           44.28692159845603        5.74804508623481        1.48174850260097
H           44.93262255200793        8.14243015949629        1.51889349085736
H           43.78830435478611        7.98643582216964        0.17256749084895
H           45.72458257968411        9.15452007468431       -0.60239956926525
H           46.93062757291801        7.89566079498450       -2.09761275516314
H           46.76086251522133        5.40839488929590       -2.02680035162455
H           42.97272436538940        4.85937660880414       -0.70853064553611
H           41.13060416699477        2.89171339306047       -0.57245859306287
Ni          78.19686821308053        0.38060020965442        0.33292841503686
C           81.58132512957619        0.26570278753734        0.27927365754871
C           80.97444898651705        1.49924339699184        0.39936687635121
C           81.69073851701118        2.72922864005254        0.54474352926302
C           80.77141794942754        3.72239794686918        0.49637586470407
C           79.49436059055579        3.09907180211399        0.30704881230140
N           79.62539144208152        1.73235613831334        0.30027046233687
C           78.31144625456116        3.79267190326678        0.08312688006764
C           78.35400352360082        5.26981320746784       -0.02299765387852
C           79.07870785019811        5.88869458296512       -0.96710013899030
C           79.15062128325768        7.38933384230643       -1.07828512849399
N           78.07379838460878        8.03046733209984       -0.31858037361882
C           77.49741655635906        7.39134856883191        0.74872402119559
C           77.57219047393912        6.05963017369906        0.91793738368221
C           77.08488221976641        3.15099821095708       -0.03955010237578
C           75.85454000441399        3.82610569438671       -0.32069766450989
C           74.86917455528561        2.90032521533819       -0.22911461779917
N           76.85829389693396        1.80963959272834        0.16793861902179
C           75.49930309457181        1.66072952129924        0.09681232726064
C           74.79596169921999        0.49920259419795        0.42336991818274
C           75.43238332722080       -0.71206274644339        0.70202466838570
C           74.73487035421897       -1.90878996533881        1.05033034360404
C           75.65566711549695       -2.90296086971173        1.07516510548821
C           76.91399996007576       -2.31117682940227        0.73666888256577
N           76.77149502506151       -0.95486480486360        0.55371986800417
C           78.08740548835642       -3.03330926807199        0.55507425825894
C           78.03304217603201       -4.51122133994256        0.64884327024879
C           78.74254433854611       -5.18563214070939        1.56598967561740
C           78.71738756552277       -6.68844711215900        1.66704903137675
N           77.59150517238034       -7.25399712805531        0.91847182591597
C           77.02357562623996       -6.56474632368869       -0.12108225707660
C           77.17341728331434       -5.23735857670347       -0.27491521827019
C           79.30606925699000       -2.41953422182364        0.29417691189645
C           80.53160003189042       -3.12633507152257        0.06196084665739
C           81.51518673846353       -2.19774642061427       -0.00226832927814
C           80.88888638456335       -0.92334640974473        0.17297846708885
N           79.53049623190446       -1.06487080962385        0.30885964625751
H           82.66442703602610        0.22883508824417        0.26468311699540
H           82.75980982791832        2.80351706499581        0.66654065212777
H           80.93113382438722        4.78493889466069        0.58222253838359
H           79.66454927587971        5.33516342478077       -1.69165681505017
H           79.05366286034197        7.69596944001545       -2.12857971383187
H           80.13355640207794        7.75123261077002       -0.72233734724173
H           78.17401248268985        9.03192916670163       -0.23656530236362
H           76.90725317026717        8.03134352789121        1.39685239217820
H           77.06889528986183        5.56632440965983        1.73726005048367
H           75.76608836543699        4.87486908868480       -0.55300758983156
H           73.80734704168462        3.03256502061558       -0.36106689579857
H           73.67495275773770       -1.96759217687978        1.23916703719605
H           75.50642744745699       -3.94662036026291        1.29946584930034
H           79.38582219697014       -4.67864974619259        2.27579612698770
H           78.61536867414598       -6.99515766926615        2.71713134087599
H           79.66974479229592       -7.11111352548177        1.29559118640629
H           77.62896567393591       -8.25827655733365        0.82112006417016
H           76.37807050115592       -7.15862896303291       -0.76032881361908
H           76.67622148774682       -4.70248134661596       -1.07154152477574
H           80.61567517021294       -4.19630785879502       -0.03792303167756
H           82.57296887273768       -2.34336171292159       -0.15451480816643
C           50.48172446136056        0.65908079521950        0.46814366846045
C           51.69618621139821        0.69555917901884        0.51183603580731
C           61.32371420120739        0.91763023416019        0.80692649755735
C           62.54004486316617        0.91483089734295        0.82363977861966
C           72.17489395101792        0.61393679821483        0.53082740898466
C           73.38786922498861        0.55536152069813        0.47688059405241
Ni          56.50823397667643        0.84999452310741        0.69779339420644
C           53.10365689797517        0.74281773543769        0.56793618022905
C           53.76882141987191        1.79032289358016       -0.07476158782850
C           53.10149252691456        2.84936946297560       -0.76149334095032
C           54.06027210527701        3.57119064284776       -1.39197396391172
C           55.31120985941306        2.94117626047977       -1.09945616199243
N           55.12394083449916        1.87823509130874       -0.24528163418170
C           56.51955881769445        3.29684119819269       -1.68524217241462
C           56.52651727667150        4.34516567230265       -2.73185276168556
C           55.83098922939846        4.20164872551335       -3.87030578534786
C           55.86478563528296        5.22616788350254       -4.97320442556955
N           56.39185980146756        6.50571230956594       -4.49172700906918
C           57.22472739317567        6.55504399229846       -3.40417520715969
C           57.30819816285716        5.55297678794240       -2.51135997152537
C           57.72324605520321        2.69628571470337       -1.33823194941313
C           58.97418791725901        2.98173932783668       -1.97108289139095
C           59.92584590132774        2.30758714554449       -1.27967850820344
N           57.90287581296944        1.81206699332132       -0.29919883443901
C           59.25457355197083        1.61019884518242       -0.23009266977883
C           59.91593609492948        0.91198640916234        0.78410849312665
C           59.22841059956408        0.20656759238321        1.77653633418398
C           59.86938988002253       -0.44252824823689        2.87423647690498
C           58.90730455032043       -1.13130563368432        3.53644367563712
C           57.68193067109360       -0.91105296069407        2.83157389649968
N           57.88272672133371       -0.03959360253763        1.78446029592405
C           56.49080018719508       -1.56981470381811        3.10918693137189
C           56.47590651214546       -2.61335620400926        4.16027690539134
C           57.25212279825863       -3.70469626583479        4.08246288109618
C           57.26229430770259       -4.76868843996798        5.14872220807676
N           56.09652131754371       -4.65105521411789        6.02900781222446
C           55.45741404306730       -3.44793574915143        6.18402129214051
C           55.57710855805503       -2.44759717363504        5.29380878010999
C           55.30830019774611       -1.28919825439620        2.43530985722239
C           54.08048215946293       -1.99384349566313        2.64213680152534
C           53.13154562229834       -1.34777816006131        1.92133242564439
C           53.78250418913199       -0.25590898219858        1.27057181977467
N           55.12208222279965       -0.25209266122182        1.55066145032250
H           52.03489910897965        3.00610988304035       -0.75892808862420
H           53.94119341728400        4.45072607928479       -2.00335995859010
H           55.26573977637031        3.30167745698702       -4.08298943175449
H           56.47540342439430        4.85748282443012       -5.81887544412002
H           54.85059425991721        5.39959304191862       -5.35814751114930
H           56.57588704207647        7.17403262807576       -5.22596775580034
H           57.74613043959845        7.49814675187310       -3.27486820439022
H           57.91181078289846        5.64270509484925       -1.61943217859728
H           59.09794088188538        3.61495983859982       -2.83467618332894
H           60.98924383741088        2.27805705428717       -1.45411682740683
H           60.92033601352362       -0.36816738075585        3.10230037674094
H           59.00906193259303       -1.73392414178056        4.42414096116336
H           57.92532140776580       -3.86837959973677        3.24905701795971
H           58.19365840059373       -4.70423955866747        5.74206360717026
H           57.24029223537461       -5.76570485773913        4.68815524301284
H           56.14561896716472       -5.23732158779676        6.84978107409809
H           54.78384961959708       -3.39765728090760        7.03353769598880
H           55.02555412909948       -1.52487011837903        5.40459001980564
H           53.96818350997067       -2.86755859278750        3.26319313318237
H           52.08075869392258       -1.57372499926041        1.83750613376785
Ni          67.36247683819177        0.84880106233099        0.77411597855765
C           63.94822086223045        0.90767632021055        0.82762203457461
C           64.62640617338396        1.91974722526724        0.14229641871680
C           63.96988566041644        3.01929673565359       -0.48838940713205
C           64.92971106825944        3.73328955629198       -1.12568291586592
C           66.16897401672777        3.05669337633271       -0.89456083375730
N           65.97645617733060        1.96882326349570       -0.07238432313689
C           67.36891970619037        3.40850711879209       -1.49733352437278
C           67.37872548317368        4.51274898580944       -2.48552179038850
C           66.66026894693969        4.44618897372665       -3.61655905698773
C           66.70175294206881        5.52580571091682       -4.66534874700994
N           67.27358265713804        6.76443794702027       -4.13023321997736
C           68.12403267268232        6.73583612911255       -3.05553644750617
C           68.19415651499145        5.68776764172082       -2.21606474306773
C           68.56268749684081        2.74997006125432       -1.23152615487126
C           69.79406843441608        3.03263210606823       -1.90275492534367
C           70.74413772868994        2.26259067278665       -1.31853666845022
N           68.74929388480433        1.78368267995861       -0.27003477048204
C           70.09060797813802        1.51173254932156       -0.29477695876737
C           70.76857895228140        0.68593655673320        0.60380674077770
C           70.11100166676060       -0.05305537798536        1.58964494462286
C           70.79307045441405       -0.82183452613452        2.58047920593571
C           69.83944529332470       -1.45039243891776        3.31026053886006
C           68.57694939134205       -1.07921116984917        2.74806841409837
N           68.75494159976654       -0.18217443058464        1.71893440643187
C           67.36128301716086       -1.62551572672806        3.13869874737875
C           67.35024607468846       -2.68704723141567        4.17252699846684
C           67.99308892820758       -3.85112349387617        3.99643356941138
C           68.00651972930453       -4.93481327922092        5.04264056182146
N           66.96014998966353       -4.71823649250728        6.04581728576793
C           66.47144524604866       -3.45969404597038        6.28438855237149
C           66.60042448628735       -2.45597657459216        5.39914241772462
C           66.15008438650628       -1.22856577033862        2.58628991019096
C           64.89607709385520       -1.84438102540263        2.89402608139292
C           63.94319833346256       -1.14527329185522        2.23088414059336
C           64.61592163118415       -0.10251895716243        1.52463969980225
N           65.96949696262791       -0.18091929472643        1.71211633115043
H           62.91097019754851        3.21409148137346       -0.43504481199781
H           64.81894492662445        4.63779309431768       -1.70111389932699
H           66.06964915192046        3.57230687000448       -3.86567047336853
H           67.28617623061429        5.18496544811189       -5.54066060887215
H           65.68591031069769        5.74620077407711       -5.02086657271777
H           67.46948658253898        7.45991925028148       -4.83573569070330
H           68.67275357087206        7.65708522578403       -2.88772510529361
H           68.81390689502969        5.71520073888990       -1.33114062477487
H           69.90595999813078        3.72802092443253       -2.71876564001707
H           71.79545604664298        2.19964065484934       -1.54894564676070
H           71.86418080894093       -0.86004925833078        2.69738418482211
H           69.97063011330933       -2.10536841763150        4.15592547334302
H           68.55108057872656       -4.06424692984519        3.09211356404705
H           68.99752969846024       -4.97974110179191        5.53199391262191
H           67.83125513393651       -5.91355046884389        4.57573773411072
H           67.03309749324070       -5.32731623435939        6.84791718120396
H           65.90101108810367       -3.36039593267250        7.20240556290611
H           66.16338314743277       -1.48431104512912        5.58027860252529
H           64.77175990291602       -2.70407068275303        3.53209102743747
H           62.87776262461215       -1.30821468839303        2.21551968733854
