360
 energy: -625.414484725502 gnorm: 0.000490707716 xtb: 6.5.1 (b24c23e)
C           79.64502880434661       -0.10510962564346       -0.18531777666700
C           80.22576146798112        1.11860282038705       -0.49234620472912
C           79.54764595495526        2.31143796788347       -0.86970240311352
C           80.48733628063344        3.27990240609087       -1.08548206699766
C           81.76958599862238        2.71349131063043       -0.83420848772891
N           81.56108539237405        1.40809089810615       -0.48878666474349
C           83.01742972160486        3.33919208997865       -0.93413160412822
C           83.01623423671542        4.77306291062965       -1.31440026562336
C           83.66056288968483        5.19630145787963       -2.47760336873324
C           83.65787846404069        6.53332332770905       -2.84317072929045
C           83.01046449426336        7.46840185919422       -2.03897345283581
O           82.98462818137452        8.78808098356741       -2.35840838836937
C           82.36590971401945        7.05992728777035       -0.87281036667236
C           82.36860176038552        5.72204566629034       -0.51959870645922
C           84.24677653105542        2.71461758625182       -0.70767749648197
C           85.52388054762879        3.40279285461630       -0.75918830975155
C           86.46803566863339        2.47631659193925       -0.49461369989470
N           84.43605099451983        1.40277503915338       -0.39611218284891
C           85.76779343164324        1.22719444118228       -0.26935129863106
C           86.43633292846505        0.01958888272097        0.01328243767925
C           85.83171121771848       -1.22815365387045        0.25594837790292
C           86.50418584464227       -2.45016347999982        0.52117057265157
C           85.56000219377727       -3.42021981954399        0.71464554285954
C           84.27880954294778       -2.81628328192938        0.58785354941147
N           84.49517456391985       -1.49384765677711        0.30204586730496
C           83.03167493381081       -3.43904379216845        0.70983081024308
C           83.03538365844302       -4.88433333475326        1.04253013360627
C           83.60922306109940       -5.34250789352115        2.23109725161727
C           83.61320292401615       -6.69058025865441        2.54300953193462
C           83.04556453991313       -7.60637846346871        1.65909658813093
O           83.07126483284836       -8.92225978804694        1.99350802011929
C           82.47217611339067       -7.16484432807844        0.46883643365250
C           82.46605150242773       -5.81161130732833        0.16882095011354
C           81.79917657869237       -2.79966843647326        0.54075796358343
C           80.50997028524071       -3.44547092151705        0.73261898083508
C           79.57225222740095       -2.50983854059013        0.48083956543081
C           80.28728325980057       -1.29116850695495        0.14574427795754
N           81.62541673186384       -1.50039428471362        0.20053779110509
H           78.56026711981229       -0.12894059090150       -0.21323458536900
H           78.47753771734310        2.40132991953580       -0.96815812146303
H           80.31324065453622        4.29618177129761       -1.39984997200354
H           82.30096423964270        0.74942090850393       -0.26978158727554
H           84.15354275199218        4.46771923390147       -3.11150627092760
H           84.15521891948597        6.85495032635843       -3.75195122684428
H           83.46527600296599        8.96097529537508       -3.17906515364275
H           81.87091301112015        7.79845556691333       -0.25438017526167
H           81.87996315527847        5.40783606340725        0.39601210118827
H           85.65883298025545        4.45377048356913       -0.95714922853778
H           87.53734465253757        2.60379025214536       -0.44970237371397
H           87.57510501260296       -2.56594493950712        0.55773222507525
H           85.73384776144660       -4.46392403402175        0.91961602167505
H           83.75691523512698       -0.81586189742898        0.14400639860417
H           84.03834081338910       -4.62964347251809        2.92641463357624
H           84.05057501908762       -7.04719606437706        3.46736464679839
H           82.64834471083964       -9.46636075970322        1.31566962318906
H           82.03516497550685       -7.88157361373228       -0.21819958305459
H           82.03116281776211       -5.47054158576712       -0.76406610611386
H           80.36681222065032       -4.47071244712994        1.03417034369825
H           78.49806306870610       -2.60258315448861        0.51873633867191
C          140.90232866172059        0.14502231015111        0.22778965432011
C          140.31077466534848       -1.06639268473425        0.56194689942140
C          140.98037142777488       -2.27585287731677        0.89968430692893
C          140.03150604832274       -3.22042464975985        1.17376836801481
C          138.75121367996172       -2.61556243781914        1.02233981863285
N          138.97090647219687       -1.32176872043368        0.64186408299154
C          137.49626096793997       -3.20658650397245        1.20811789282001
C          137.48139028731231       -4.61791512521573        1.66326333337575
C          136.86816106544910       -5.60468238178844        0.89010995841720
C          136.85034058129736       -6.92544938933774        1.31022660951933
C          137.44471194072906       -7.27372370967990        2.52094281755766
O          137.44697120748580       -8.55444081497364        2.97245814908728
C          138.05881751657515       -6.29803483164274        3.30399148965565
C          138.07749091186949       -4.98340541919069        2.87286036100959
C          136.27213587624180       -2.56493858686297        1.00128192658267
C          134.98326180099929       -3.17295580854384        1.27762761959213
C          134.04983718610015       -2.25512756418413        0.95118851822665
N          136.09985857904101       -1.29619440513511        0.53857399185795
C          134.76847697986440       -1.08574177795962        0.48446825330402
C          134.11627233400321        0.08630462303154        0.05317355492738
C          134.73490775364397        1.28824662574261       -0.33788644667130
C          134.07872713763388        2.45293085080385       -0.81624014852679
C          135.03227138902105        3.39582559870060       -1.08478460520803
C          136.30195379398324        2.83673518724785       -0.77227612436846
N          136.07095276828230        1.55951263384266       -0.33378092293792
C          137.55461533686284        3.44655400192730       -0.90507647761843
C          137.56689564192885        4.85577484932262       -1.36521560705152
C          136.91507232835940        5.85123161728193       -0.63270980027694
C          136.92687917922089        7.16779702128713       -1.05814678231945
C          137.58979475248421        7.50774548614798       -2.23595104782039
O          137.57862682264931        8.80813556343475       -2.62691994928130
C          138.24037960675886        6.52565772618020       -2.97947391492925
C          138.22926762493739        5.21076246300203       -2.54128090233144
C          138.77817988148061        2.82136840935140       -0.64206583041260
C          140.07065650725309        3.48325568243659       -0.72765448190510
C          140.99733984366526        2.55481802609064       -0.41551262511824
C          140.27169548816440        1.33048878175783       -0.12719064743027
N          138.93801455875555        1.53090676458519       -0.26334115956496
H          141.98738638369659        0.15842689856163        0.25179066824673
H          142.05182858355758       -2.39608186324102        0.92087023385381
H          140.19834087446452       -4.24949080446725        1.44796537575825
H          138.23537098721204       -0.65166880924273        0.44384998789139
H          136.41587539767320       -5.33698194358585       -0.05831146437827
H          136.37720170998253       -7.68879016412263        0.70182387251323
H          136.98791869684462       -9.14472591914113        2.35993813652032
H          138.51253676186380       -6.58213013451333        4.24544328766242
H          138.54096860412625       -4.22258627568978        3.49106835106481
H          134.83356503827244       -4.15963328878235        1.68512399084007
H          132.97745559398186       -2.33320877782120        1.02854490852633
H          133.01286426085201        2.54609760550374       -0.94766512822385
H          134.87311339023810        4.38655104093089       -1.47814629906989
H          136.80058737928928        0.90926474483242       -0.06097057469973
H          136.41164559727943        5.59069884855775        0.29170944764035
H          136.42907906715240        7.94204639904093       -0.48749747979844
H          138.07060415086116        8.93272908224916       -3.44960738952397
H          138.75073381030191        6.79396634297859       -3.89831896213454
H          138.72402164442465        4.44521812833652       -3.12855890364458
H          140.22288291939250        4.52085393391105       -0.97812383198247
H          142.06990613214094        2.66047104354093       -0.36692810857903
C           87.84569743545437        0.04443540453089        0.05252548094494
C           89.06224160522895        0.06202728848346        0.08680111052350
C           98.75003811065409        0.12644645827253        0.16648866852370
C           99.96767557995872        0.12618841541827        0.15558496881819
C          109.66567984639909       -0.07376106504762       -0.02737253098797
C          110.88385482548473       -0.08772585658615       -0.04088191878019
C          120.58686737786722       -0.14235904302443       -0.08893500910340
C          121.80481793251693       -0.13135257857621       -0.09317431977313
C          131.49156316367510        0.04745515474872       -0.03858083170564
C          132.70750637606190        0.06845583044805        0.00655155343479
C           90.47107632032653        0.06833607963334        0.12506159894413
C           91.10849015684400       -1.13767018085151       -0.22380825130127
C           90.47507361786263       -2.32916292391278       -0.66079323488165
C           91.44859729392829       -3.25737317490835       -0.91193992986223
C           92.70656866515158       -2.65968356231136       -0.63047214293306
N           92.45093244392976       -1.37634458151918       -0.22683174552820
C           93.97061587289755       -3.25044901332028       -0.75559110000917
C           93.99536625975091       -4.67918500502282       -1.15319468715631
C           94.64749394899258       -5.07767141477029       -2.32095767100394
C           94.67038109669373       -6.41047302794664       -2.70072112059942
C           94.04206076028279       -7.36657557163157       -1.90600646754824
O           94.04220537398024       -8.68292889783114       -2.23881940483892
C           93.38987969141192       -6.98297969227765       -0.73551892621536
C           93.36619821471821       -5.64920887012996       -0.36853435877789
C           95.19029009164916       -2.60598053080745       -0.54174851616086
C           96.47674793464999       -3.27574593776250       -0.59728468442721
C           97.40938065810901       -2.33296161745082       -0.34845952015774
N           95.36249898557007       -1.28846822038090       -0.24205255965854
C           96.69228817635435       -1.09213927404349       -0.13430493011962
C           97.34193741585690        0.12274785018734        0.16489135766632
C           96.70548150297222        1.33835009878034        0.47894711383755
C           97.34147477572793        2.55998380423613        0.81851094010681
C           96.36788086393953        3.48199432783949        1.08928363960560
C           95.10616477598531        2.85337259795752        0.90741424328415
N           95.36133970265806        1.55896927527754        0.53938361790345
C           93.84212112108389        3.42308645535296        1.10214212444872
C           93.81828148942856        4.84881417804668        1.51585058583559
C           94.34447607141081        5.84052300937642        0.68459902883039
C           94.32287099914566        7.17035767340070        1.06634977899089
C           93.77671316398842        7.52713237303674        2.29787590990917
O           93.77534960008703        8.84047503056614        2.64336698368196
C           93.25158457035735        6.54872026898563        3.13879420318541
C           93.27143019976860        5.21985003192645        2.74453938595254
C           92.62118547888488        2.76614232346944        0.93841681847887
C           91.33099595012027        3.41156581129294        1.10135218256028
C           90.39832832915764        2.47536435500171        0.83055513421839
C           91.11807235710869        1.26419976936158        0.49175500280224
N           92.45005771879747        1.46736060284650        0.56759668414365
H           89.41097685359463       -2.45074266643599       -0.78094427446829
H           91.30856740733077       -4.26196208357911       -1.27619475033713
H           93.16364929968809       -0.69761917713150        0.01933590411230
H           95.12567156268982       -4.33284180112651       -2.94728440260995
H           95.17308508026660       -6.71271856384976       -3.61319015495340
H           94.52853954247298       -8.83885582957068       -3.05954260920690
H           92.90984267484004       -7.73752754983907       -0.12468860282947
H           92.87141373713541       -5.35415140302209        0.55013926849773
H           96.62507505653917       -4.32783103220122       -0.77919335499920
H           98.47953364489989       -2.44832127472192       -0.28910242499156
H           98.40828090246612        2.70759944408216        0.85430521406067
H           96.51069355222621        4.50490959357126        1.39699806645552
H           94.64714698638943        0.86415765829757        0.34843672627069
H           94.75709795992624        5.56526006383673       -0.27962342809942
H           94.72348703603890        7.94195267985856        0.42057440107783
H           93.36990195219585        8.97587585508798        3.51034708807044
H           92.83098510392419        6.83044575391227        4.09816916095657
H           92.87320902099522        4.45789171033167        3.40523290690424
H           91.17984219000232        4.44409444117048        1.37141680576063
H           89.32507841565010        2.57264721508094        0.85055849900081
C          101.37523691483780        0.09693620907061        0.13486778067165
C          101.96669665422792       -0.88562692485860       -0.68253780767659
C          101.28626759646127       -1.79974395264454       -1.52721030951477
C          102.22570484978267       -2.54578798537529       -2.18500153684034
C          103.50903301051669       -2.11127621649208       -1.75648607657994
N          103.30176435747941       -1.10600591615577       -0.84992574227914
C          104.75011198472617       -2.57810559031684       -2.20697404605718
C          104.71514527892349       -3.69073445699623       -3.18944865755268
C          105.23229129543988       -3.51994845137072       -4.47390046329540
C          105.19717161640685       -4.55533413507106       -5.39498871144906
C          104.64629691016664       -5.78290300618428       -5.03450951578429
O          104.59417160476340       -6.82447850516747       -5.90447814955309
C          104.12852995821528       -5.96751390948956       -3.75390233242587
C          104.16115484367589       -4.92565158482581       -2.84387290119039
C          105.99586255572927       -2.08564042615884       -1.81600663642597
C          107.25825533074257       -2.62743591249593       -2.28428503204501
C          108.22849914621720       -1.91220981544231       -1.67859864018678
N          106.22139471705123       -1.07075521224677       -0.93552233839137
C          107.56028012474080       -0.94606413244164       -0.83115362754022
C          108.25860085548302       -0.03634809807908       -0.01108319146520
C          107.66519776363390        0.91333145236255        0.84403132055710
C          108.34113643171656        1.78423710126608        1.73595604592787
C          107.40101649320488        2.53806523865563        2.38403590113129
C          106.12128826363775        2.15020895707808        1.90363802963667
N          106.33106427509270        1.15903709873223        0.98200480203018
C          104.88042737374698        2.65688595056738        2.31058279118066
C          104.91648004678630        3.77684777203723        3.28351395768389
C          105.54283863405648        4.98190851416741        2.95527976291363
C          105.57779871839723        6.03135304324594        3.85620404244634
C          104.98924495850422        5.88469267753661        5.11097663683792
O          105.04605103890016        6.93234316634475        5.97323586084181
C          104.36541699650029        4.68749627563806        5.45428422316182
C          104.32864617845360        3.64447005215240        4.54198966937628
C          103.63409495628746        2.19488818922119        1.88473256594717
C          102.37207023219678        2.78261809735299        2.29593831781482
C          101.40177522392074        2.06180492811746        1.69647531814564
C          102.07101024777612        1.04655729843496        0.90909279927105
N          103.40958030483542        1.15427206940058        1.03539601467210
H          100.21532695335975       -1.86229838688575       -1.62894769739482
H          102.04660301891539       -3.31778796225733       -2.91536061397197
H          104.03990970226087       -0.58916408610996       -0.38374796879445
H          105.65021970878534       -2.56108521720277       -4.75954700817959
H          105.59464649990279       -4.41471968106172       -6.39445557096971
H          104.98583934928442       -6.59115084663383       -6.75684363781115
H          103.70706521788036       -6.92842985101772       -3.48572945980821
H          103.76946402445819       -5.07375942405334       -1.84365651683729
H          107.36806204968174       -3.45104067740540       -2.97093195326408
H          109.29662536952701       -2.01244972797080       -1.77963029107148
H          109.40919129196701        1.81468895998190        1.87389045023131
H          107.57693126072739        3.28495572910384        3.14080042336496
H          105.59513993027906        0.67133596389932        0.48224125455064
H          105.98962945036276        5.10101116780670        1.97445393634867
H          106.05546517050671        6.96922071001365        3.60098155104930
H          104.60093827394287        6.72675688267408        6.80629921371104
H          103.91290931871072        4.57619099351024        6.43383214826435
H          103.85421127132368        2.70863588736811        4.81541281439979
H          102.26327074700738        3.63814471744457        2.94261590482008
H          100.33342474305967        2.18915125724426        1.76316845905112
C          112.29128853880638       -0.10343363684800       -0.04685408396145
C          112.91230165027234       -1.26019765544618       -0.55681177145154
C          112.26237358667512       -2.40982737285152       -1.07360535435599
C          113.22348661887767       -3.27118933656286       -1.52707621817243
C          114.49207275544094       -2.67835949913032       -1.28515077357736
N          114.25334482044813       -1.46713418406631       -0.69174986243214
C          115.74498838565304       -3.19648474026895       -1.63450566781460
C          115.74423643517645       -4.51350739050325       -2.32172107186475
C          116.20882294119041       -4.62452613292688       -3.63237803464848
C          116.20434067873551       -5.84806934883582       -4.28401917123965
C          115.73825009346544       -6.98167168305370       -3.62223773535277
O          115.71811623253754       -8.19987173781215       -4.22219130823304
C          115.27555172351806       -6.88496177656328       -2.31129435143827
C          115.27669885008139       -5.65771811962337       -1.67174631755504
C          116.97551291605022       -2.58334696625550       -1.39625850331163
C          118.25222501364763       -3.17969682935451       -1.74460996841308
C          119.20290114047853       -2.32381949331920       -1.31610594569263
N          117.17294240256722       -1.39155367032458       -0.76721217090287
C          118.50810386895513       -1.21328134179103       -0.69750998529969
C          119.17927254944851       -0.13249590937383       -0.09128703355244
C          118.55847634657601        0.97052813736764        0.52745172148816
C          119.20586657602429        2.02755272672238        1.21611437431691
C          118.24417366930103        2.89624765476396        1.65585939230880
C          116.98005105614055        2.39582945847911        1.24319909108048
N          117.21956162907317        1.22249427327030        0.57892581421428
C          115.72599109255836        2.97934625027037        1.46599933145677
C          115.72392796479561        4.30460489059016        2.13158665793491
C          116.39508579391295        5.38991292209905        1.56200702123342
C          116.39240334863379        6.62836901665814        2.17859592974472
C          115.71954723292261        6.79739397343474        3.38741427714843
O          115.74113306281957        8.02471935262711        3.96773893884284
C          115.04926022259703        5.72392434191500        3.96958978462137
C          115.05097408569650        4.48899954223036        3.34032578319067
C          114.49636087002946        2.41888904523900        1.11553466454663
C          113.22598908431505        3.10360419372398        1.26893936929186
C          112.27514024948808        2.24266095501367        0.84983930803418
C          112.96457717100326        1.03715610072634        0.43808939660392
N          114.29729836863403        1.17876655729489        0.58829316575448
H          111.19502197782666       -2.55312749446441       -1.09721358382186
H          113.06790529240698       -4.22907817177970       -1.99576740163975
H          114.97439279398766       -0.81280880625044       -0.40667059796176
H          116.56175170587701       -3.74053265672303       -4.15172281754053
H          116.56015098700573       -5.92732014544238       -5.30570801954008
H          116.06727691169752       -8.15480231933287       -5.12241957717536
H          114.92073784729217       -7.77541255464902       -1.80722000841001
H          114.92799691425044       -5.58529382384418       -0.64759589957288
H          118.38330894649265       -4.12984694285062       -2.23653024721040
H          120.27363998324306       -2.41514061688605       -1.39860972649384
H          120.27011136561076        2.10178117638387        1.36736737733780
H          118.39598116682549        3.79587941077321        2.22952322420301
H          116.50009766878301        0.62429947393630        0.18697759030889
H          116.90635931903397        5.26344578286331        0.61415135351290
H          116.90479965753379        7.47290461685281        1.73463921703802
H          115.23701646310965        8.03349818921225        4.79246485522957
H          114.53054363343217        5.85881276271949        4.91267509097699
H          114.53961013992921        3.65114738358285        3.80099110911159
H          113.10041876854015        4.11294245813941        1.62599991653167
H          111.20972262474172        2.39611040800288        0.79538393966455
C          123.21251544528992       -0.11082263038413       -0.09237608426682
C          123.86395493081659       -1.34603239416346       -0.27329174045051
C          123.24259372309299       -2.60481740030409       -0.47631237374001
C          124.22649124524602       -3.53764881363541       -0.65804662445728
C          125.48067422418717       -2.87756751750347       -0.55314925619121
N          125.21053176733635       -1.55507092937648       -0.31975357651622
C          126.75079325720884       -3.44922709642904       -0.69571415190127
C          126.79170341723754       -4.90688180053588       -0.97515432509501
C          127.33810256840664       -5.37856286271810       -2.16916346046215
C          127.37180910591769       -6.73654075090834       -2.44522467957109
C          126.86191660913825       -7.64280492864433       -1.51843811486288
O          126.87622803932997       -8.98140728615218       -1.74785188354878
C          126.31869415314870       -7.18528735895067       -0.31941918188007
C          126.28257846452529       -5.82719620305489       -0.05611440202690
C          127.96442350984688       -2.76637528862596       -0.59943961512411
C          129.26146889775316       -3.41295692751906       -0.68553662582986
C          130.18396054130014       -2.44451036310367       -0.50918573329879
N          128.12110489558839       -1.43374942369977       -0.36956880809971
C          129.45041632270446       -1.21060782883901       -0.31002791999405
C          130.08361648466706        0.02685920562482       -0.08449093426047
C          129.43389318923508        1.26014440933947        0.11099433859741
C          130.05543460469568        2.50480830909718        0.38792891790855
C          129.07148637392157        3.44493745935222        0.53088015712109
C          127.81913628377104        2.80102618738514        0.33995060371047
N          128.08867939688975        1.48103558779598        0.09515636597715
C          126.54797847877106        3.38524132101339        0.40981999604557
C          126.50715453267533        4.85036775977117        0.63890983109295
C          127.10469440423461        5.73071360300663       -0.26657445098401
C          127.06719504349797        7.09775113985839       -0.05627460424321
C          126.43345477440931        7.60585144677801        1.07622198805589
O          126.41929295115035        8.95172463786027        1.25430444728681
C          125.83664344214137        6.74016622570129        1.99007668949602
C          125.87249021683887        5.37276131015727        1.76671855746867
C          125.33528200798523        2.70497989544466        0.28670484760510
C          124.04099727639067        3.36168489174472        0.27978775473627
C          123.11852431831301        2.38623309149991        0.14560863155142
C          123.84910791681280        1.13757281606814        0.06505791733878
N          125.17714926894823        1.36005153505461        0.13895164866776
H          122.17793389010127       -2.76958076239741       -0.48620108726545
H          124.09522762832216       -4.58893007676133       -0.85545707422992
H          125.91644226900267       -0.83477744649702       -0.20925960524356
H          127.72478307315505       -4.67292806446550       -2.89601107450928
H          127.79099272132943       -7.09692477057017       -3.37857597904501
H          127.27537889788407       -9.18723256217366       -2.60380668898454
H          125.93111406501191       -7.90161034007576        0.39440478452446
H          125.87189176946413       -5.47297838846818        0.88280897352370
H          129.42320743066574       -4.46711223213622       -0.84242770488914
H          131.25831741448684       -2.53306659315979       -0.51009209005479
H          131.11926579228657        2.65331210063013        0.47784564067774
H          129.20067933915814        4.48915294201284        0.76414846410291
H          127.38313981257727        0.76841846683007       -0.05860097237375
H          127.58574474899712        5.33741155744348       -1.15525036421926
H          127.52265884146199        7.78233216205073       -0.76108667931578
H          125.95134693234203        9.19554214890220        2.06420591695071
H          125.34840097573743        7.13986449751181        2.87240970088931
H          125.41872690134745        4.69913197113598        2.48508097207582
H          123.88105895264171        4.42566343765022        0.34585342093371
H          122.04671638425199        2.48189760652926        0.08312958314950
