122
 energy: -214.236082101788 gnorm: 0.000495440187 xtb: 6.5.1 (b24c23e)
Zn          14.27159539863618       -0.04144989481632       -0.00337929216650
C           10.86268565787489       -0.07962343229816       -0.09267368071962
C           11.49289679728011       -1.31552692050117       -0.00984776516184
C           10.81908033573571       -2.57986432923182        0.08572670729773
C           11.77832333051108       -3.53545112854804        0.17154632224280
C           13.05136960927570       -2.86679430623768        0.11774986506665
N           12.84243883663822       -1.52238228546664        0.01548348098240
C           14.30245786786769       -3.49279044582910        0.18594016606628
C           14.31661481241346       -4.97438807931699        0.27777044789355
C           13.77274789032118       -5.75503809659307       -0.74262673391416
C           13.78704291971000       -7.13905707140073       -0.66101653669161
C           14.34456044939250       -7.75968811666396        0.45426232852915
O           14.37662613613816       -9.11250157245439        0.57631294674119
C           14.88841309016355       -6.99214983332364        1.48232035662953
C           14.87498814431186       -5.61171842297497        1.38855001393155
C           15.54069883859744       -2.84106169390481        0.17589824316218
C           16.82101725949230       -3.49283985703696        0.18720882016385
C           17.76665170045768       -2.51924812563642        0.15461058059576
N           15.73353999461020       -1.48592982949856        0.12358429958109
C           17.07527835854771       -1.26453279258168        0.11556037920705
C           17.70591456106743       -0.00461825432135        0.06395019156965
C           17.05103669797496        1.24194765590379       -0.00338695562136
C           17.71771608248880        2.50825700129235       -0.07936752310119
C           16.75316333858473        3.46156537272972       -0.14348666483709
C           15.48581400567654        2.78621045667781       -0.09995953650071
N           15.70523787162618        1.43639457925438       -0.02199138268098
C           14.23514007790149        3.41086942224751       -0.16098749667225
C           14.21863681260359        4.89456786070232       -0.21177557786259
C           14.74881759753626        5.64576975203299        0.84006974211198
C           14.72891410805167        7.02888498425563        0.80499327140271
C           14.17968320937724        7.68406181648545       -0.29544366777107
O           14.17706549656827        9.04277276498114       -0.29902096038875
C           13.65165165109540        6.94904541874245       -1.35412842449187
C           13.67023916082958        5.56345174889319       -1.30645655369604
C           12.99687022540768        2.75645775668075       -0.17296443805282
C           11.71083210079180        3.40174131322207       -0.19364141270691
C           10.77068365572968        2.42369961256411       -0.18193216200234
C           11.46928827160805        1.16982471000811       -0.14242772533122
N           12.81439872151872        1.40473264882126       -0.13624017123307
H            9.77706567047813       -0.09032142999559       -0.10370170148593
H            9.74789499595167       -2.70825350362034        0.09476895236732
H           11.63943795270424       -4.59965466787559        0.27628545912071
H           13.35085100052670       -5.27362755740870       -1.61791568247808
H           13.36879310317896       -7.74067493996677       -1.46091929614535
H           13.97394188038356       -9.54418652990345       -0.18906628178157
H           15.31489708517337       -7.48815549919103        2.34535499526710
H           15.28691367821871       -5.01452124205053        2.19437896857976
H           16.97635055507866       -4.55960685527415        0.20220249708785
H           18.83890217541442       -2.63422485162107        0.15026954652038
H           18.78765504255508        2.64291843014998       -0.08836573207231
H           16.88706771140677        4.52800649252065       -0.22787153784731
H           15.16459922983181        5.13614580094231        1.70215961080259
H           15.13297095693376        7.61292795004249        1.62263914645109
H           13.77376206633244        9.39131857387892       -1.10528139499450
H           13.22955802278159        7.46354824765706       -2.21085486905333
H           13.27003598635355        4.99270070569260       -2.13715118014134
H           11.55086452397380        4.46810574895002       -0.20167319747784
H            9.69716521516759        2.53088611201842       -0.18965436120135
Zn          30.31601683404712        0.03989434849161       -0.00922978399596
C           33.72492544162316        0.06507563005322       -0.10153969183597
C           33.09465912848454        1.29977119936284       -0.20023444871761
C           33.76838860668190        2.56454586216428       -0.29085503204349
C           32.80910301429298        3.52244103974464       -0.34417896624369
C           31.53612394741137        2.85309720175263       -0.29808670711952
N           31.74511433871689        1.50808989358486       -0.20412246786604
C           30.28513195390755        3.48253637812514       -0.31819265100504
C           30.27094937985418        4.96210704264612       -0.43955538292906
C           30.80836123021232        5.58840238971648       -1.56438952032822
C           30.79382209403616        6.96988311116678       -1.68158845426931
C           30.24289930886641        7.74392422123248       -0.66315597384931
O           30.21096238758890        9.10030791333766       -0.73568939024574
C           29.70569498696326        7.13162881064537        0.46747905006618
C           29.71899931213687        5.75196445853469        0.57199386533431
C           29.04696013118411        2.83643463054836       -0.23207511521782
C           27.76667879633439        3.48358754155217       -0.31110169333928
C           26.82099456998370        2.51544979742936       -0.20371606276054
N           28.85405104368083        1.48770383250786       -0.09074577305088
C           27.51231317424642        1.26770414677003       -0.06546863192756
C           26.88169885711070        0.01320671816029        0.06199890274591
C           27.53657646711256       -1.23031974766702        0.17220013067936
C           26.86978291145842       -2.49462696227369        0.27526257991730
C           27.83425341013106       -3.44737066664374        0.34839691426623
C           29.10168950326294       -2.77261904312657        0.29829066013233
N           28.88237144012867       -1.42541178501150        0.18339903915475
C           30.35243258398651       -3.39943192732460        0.33030005739841
C           30.36883113449661       -4.87500237357530        0.49250075138826
C           29.83128669520743       -5.46843063058847        1.63740674324678
C           29.85087162909696       -6.84231291316441        1.80067568779008
C           30.40754454300582       -7.64785349230919        0.80914536366798
O           30.40983443752648       -8.99307637634720        1.00007388090425
C           30.94306308598430       -7.07150474621683       -0.34018019848581
C           30.92441770850781       -5.69338318973616       -0.49146506974390
C           31.59084801176333       -2.75313795342747        0.22767160697130
C           32.87695145632912       -3.39410389963654        0.30398246183946
C           33.81707335979401       -2.42442790011463        0.17555911265516
C           33.11838703286715       -1.17837258982176        0.03091030416137
N           31.77326754110351       -1.41029289020546        0.06861355466362
H           34.81055098450481        0.07416008777193       -0.11333387203228
H           34.83956407224844        2.69283908862898       -0.30201756185778
H           32.94781111416425        4.59054308157031       -0.39632541094485
H           31.22541163479099        4.98650839016576       -2.36420995977138
H           31.20687350682754        7.45071079251965       -2.56189902036443
H           30.60821520017485        9.41787432984145       -1.55766237428686
H           29.28430987341959        7.74619779837497        1.25331165170721
H           29.31199488045860        5.27627698705949        1.45731170777201
H           27.61153608063908        4.54178968752834       -0.44710404857099
H           25.74873024345405        2.62885538597351       -0.22250477393356
H           25.79984487330444       -2.62928790798486        0.28360333215277
H           27.70009773460045       -4.51501450732019        0.41528453808989
H           29.41000673000120       -4.84102618945725        2.41502932633467
H           29.44090279069714       -7.30360581758410        2.69065496147752
H           30.81914509156811       -9.45310005261299        0.25504355984060
H           31.37095990952449       -7.70300082687488       -1.11153989173012
H           31.33020426834434       -5.24719861986029       -1.39271253722724
H           33.03708917521099       -4.45020337627157        0.45158496531212
H           34.89060390701675       -2.53125901238953        0.18595716187031
C           22.90802881485339        0.00287693918334        0.07575695279662
C           21.67953753977874        0.00671050276472        0.07549632005705
C           20.33521432831089        0.00648535652710        0.07350775527505
C           19.11104991460534        0.00701198738534        0.06958151057782
C           24.25235420658754        0.00341071166890        0.07346189001344
C           25.47655370883913        0.00246173109543        0.06897372236496
