382
 energy: -671.328618278071 gnorm: 0.000194345311 xtb: 6.5.1 (b24c23e)
C           77.82256080171094       -0.10090428472377       -0.03126401004610
C           78.44227141502654       -1.31093308482070       -0.31483015497305
C           77.80128704365552       -2.54302741798464       -0.62619051120076
C           78.77147390044870       -3.48452272408113       -0.82316692958225
C           80.03682543997434       -2.86016153689393       -0.62714136146851
N           79.78750898434477       -1.54976471725081       -0.33465891274145
C           81.30575957176886       -3.44189041351091       -0.72854338613150
C           81.35184598562485       -4.89082456498313       -1.03414969049580
C           81.98735879011072       -5.34825909822274       -2.19288119090403
C           82.02620304749341       -6.69866483515798       -2.48097724150414
C           81.43557570542926       -7.62463384598606       -1.61454380977821
C           81.49341085757449       -9.06079249779287       -1.94248925831785
O           82.02379753362919       -9.50077277874810       -2.93024407479118
C           80.80284410083067       -7.16950933416282       -0.45525926079926
C           80.75892043775313       -5.81629740838339       -0.17052751467616
C           82.51584360650125       -2.76177324708139       -0.56445140242322
C           83.81821931565116       -3.40332096283293       -0.60341282244533
C           84.72997632142207       -2.42879823756261       -0.40774055155598
N           82.65761405840713       -1.42974598590370       -0.32713723622665
C           83.98367133945356       -1.19624169641919       -0.24148304545547
C           84.60834863703468        0.05073359434478       -0.04516302492121
C           83.96246338451715        1.28311596289940        0.16223958070548
C           84.59522937826623        2.54207167793574        0.34123963504630
C           83.62084217838829        3.47851242690031        0.54795464734302
C           82.36169403489130        2.81704514982526        0.50995060014910
N           82.61948377759506        1.49534125880410        0.26182621236234
C           81.09443700988466        3.38999453922157        0.66553544108380
C           81.05029865214487        4.83836093289975        0.97048843787182
C           81.66471989049992        5.33788859607107        2.12342766757907
C           81.61919293353334        6.68843804565325        2.40984887809765
C           80.96332906153737        7.57323991642330        1.54737570747758
C           80.93242766125425        9.01054598509420        1.87343048771611
O           81.44988218463800        9.48586967703330        2.85173080725139
C           80.35143213617326        7.07636214833235        0.39393192750829
C           80.39282931231247        5.72298142218425        0.11045787842190
C           79.88339454752368        2.69685809443023        0.55799924497238
C           78.57469655323351        3.29398677549019        0.77733089520297
C           77.67000794764043        2.31493992250801        0.57745455374320
C           78.42492083271658        1.11801675736952        0.24998528160232
N           79.75457495283644        1.38330242169904        0.25804326967850
H           76.73741054394945       -0.12010970837287       -0.02941229052721
H           76.73347626509880       -2.67655250102674       -0.69406938712422
H           78.62923928178122       -4.51917245345789       -1.08988600685105
H           80.50675657803717       -0.85570807113426       -0.16086952407648
H           82.43492450628841       -4.63212565036171       -2.87267462182735
H           82.51185941954748       -7.06068471827633       -3.38080999351465
H           81.00141680551272       -9.71922069796255       -1.19509349527157
H           80.34617256307325       -7.88122470381835        0.22485615834036
H           80.27979966309732       -5.46817448668871        0.73771702152599
H           83.98926378482903       -4.45798641740027       -0.74573139952061
H           85.80430372675121       -2.51073221461803       -0.36821876645214
H           85.66100465336679        2.70122064524591        0.30995122959395
H           83.75855813923469        4.53608918131605        0.70311630798659
H           81.90383043801693        0.78240920014305        0.16571664979233
H           82.16068881529758        4.65337321288229        2.80239346086224
H           82.08731279821095        7.08203576012393        3.30573058988646
H           80.38572567808443        9.63419864398340        1.13434110565988
H           79.84409589461268        7.75623396605541       -0.28281351107654
H           79.92948508610793        5.34281774393777       -0.79296220849103
H           78.39758988770942        4.31932537391475        1.05937011964134
H           76.59473007420056        2.36422809999352        0.64715706152393
C          151.85114082959896        0.08110526818913       -0.00230369642105
C          151.23342042269235        1.25296960988541        0.41454631972368
C          151.87642954565203        2.46282109725486        0.80015396308478
C          150.90828205429568        3.36304846304386        1.14468306743864
C          149.64226384816834        2.72852949372670        0.98989713698666
N          149.88909081072902        1.46303167237324        0.53997359172212
C          148.37479204123696        3.27765962289076        1.21514579414270
C          148.33358031279144        4.66842486773928        1.72459352378951
C          147.70458758774879        5.67570966196380        0.98625403528204
C          147.66937756339030        6.97186533450308        1.46282640746164
C          148.25746909712126        7.29077413494642        2.69139686319412
C          148.20304106720519        8.68037953776511        3.18061810814376
O          147.67851835311112        9.58199449196793        2.57852651725746
C          148.88476438672541        6.28522935692593        3.43087314569400
C          148.92494011498007        4.98861029271929        2.95007390684760
C          147.16309852449353        2.61506697766355        0.99977656065098
C          145.86149400378503        3.18832315379198        1.29412396501466
C          144.94844344944957        2.25219636554502        0.96395564732427
N          147.01944564195102        1.34987795871607        0.52086591135851
C          145.69317903786921        1.10529022662123        0.48017090528054
C          145.06690000918525       -0.07911979982592        0.04666652085955
C          145.70899600856237       -1.24987754413904       -0.39496017812646
C          145.07125693830130       -2.43054865162682       -0.86101045765024
C          146.04350910751654       -3.32865091293702       -1.20268861286730
C          147.30686442315741       -2.72653406463687       -0.94552241870863
N          147.05267393906962       -1.46963186510891       -0.46519576029098
C          148.57367533394140       -3.27760259406455       -1.16780136728873
C          148.61698976936546       -4.66388167414058       -1.68697894135271
C          148.05178499870172       -5.71465175236628       -0.95741178073265
C          148.09404292867345       -7.00602088242879       -1.44627902462622
C          148.69716562140121       -7.27706281725112       -2.67902324469783
C          148.72414775726375       -8.66256396354026       -3.18166081689873
O          148.24852510195933       -9.59821552685856       -2.59079532653933
C          149.26116634742226       -6.22830625157309       -3.40961841254345
C          149.22340132666596       -4.93629856770851       -2.91689817094271
C          149.78612161157810       -2.61716451007285       -0.93867181073512
C          151.09602874469525       -3.22552572254551       -1.11581826999311
C          152.00217073760052       -2.28279881063115       -0.78855073241251
C          151.24740608364650       -1.10347558895206       -0.40210967901022
N          149.91645244282137       -1.34464069941403       -0.49657627928317
H          152.93621523099506        0.10243442990361       -0.01241866509503
H          152.94408323831166        2.61373686129422        0.80267926569760
H          151.05201637388225        4.38113353249263        1.46830770366569
H          149.16858039205530        0.78177386774322        0.32542855650225
H          147.25898870250359        5.43441033790207        0.02789248748351
H          147.18824579954605        7.75986057179778        0.89345310889756
H          148.69195936666665        8.83601224166547        4.16601930511662
H          149.33994784458758        6.52282770609525        4.38691441119129
H          149.39990238761632        4.20788863646699        3.53364930986533
H          145.69145355713275        4.16799859319568        1.71016723541408
H          143.87421624913759        2.30395292599484        1.04005638974127
H          144.00359181392844       -2.56294109363525       -0.92973314919576
H          145.90115788089298       -4.31710346761720       -1.60785558384549
H          147.77127034494958       -0.79924110743128       -0.21242989070320
H          147.59672033089726       -5.51117654648916        0.00540736686923
H          147.66347424833330       -7.82711651459772       -0.88319083856080
H          149.22523074896773       -8.78069290911733       -4.16610123347562
H          149.72784663148965       -6.42895516893718       -4.36855692642374
H          149.64911547905896       -4.12250398086133       -3.49302106999756
H          151.27301740818797       -4.24083490443543       -1.43218790525845
H          153.07867354184225       -2.35109512299702       -0.78984388631541
C           87.23801291280709        0.09880065623773       -0.05857172195202
C           86.01668437252239        0.07928678591824       -0.05246705800223
C           88.58917145073835        0.10835440483980       -0.06299673345293
C           89.81080161049944        0.10770110028466       -0.06186215107171
C          100.70366637156641        0.00580518769756       -0.02141152979865
C           99.48105583478632        0.01847739766197       -0.02860482043085
C          102.05218767163215       -0.00194950336783       -0.01791958515844
C          103.27487784224182       -0.01006769736675       -0.01265643054674
C          114.16546117915991       -0.01709751655386       -0.00697287609159
C          112.94266855600546       -0.01431113321460       -0.00987766931938
C          115.51387160086774       -0.01624380554214       -0.00690595515582
C          116.73665975619940       -0.01731337572571       -0.00376265311077
C          127.62668377190499       -0.02682056200539       -0.00471003264103
C          126.40400271411136       -0.01984553264635       -0.01209681265425
C          128.97517579715182       -0.03209384582516        0.00150458743890
C          130.19778471458514       -0.04249387830776        0.01185874041800
C          141.08510677041068       -0.13170355702240        0.04591976874084
C          139.86371841996200       -0.12946174466121        0.04189150865051
C          142.43670297721167       -0.12345357521447        0.04781755379436
C          143.65786176821692       -0.10582436384963        0.04903514902047
C           91.21855034044090        0.09809452941201       -0.05836050342902
C           91.85380842988187        1.04976166038830       -0.87743329960353
C           91.21381726115484        1.98843463745223       -1.72782201409094
C           92.18555371916662        2.72102134385413       -2.35262652501264
C           93.44823068781881        2.25701829445166       -1.89248850062491
N           93.19706195335189        1.24224884580797       -1.00900777919316
C           94.71379515811786        2.71705687279480       -2.27768404422245
C           94.74223071022301        3.84185436005413       -3.24300626451593
C           95.33961319611906        3.67925126986683       -4.49683229848420
C           95.36525204156725        4.72544082945895       -5.39854007406112
C           94.79945056327959        5.96067199535370       -5.06563748379996
C           94.84380356314624        7.06308387276668       -6.04387414378780
O           95.34270502244516        6.96845751705885       -7.13582852778025
C           94.20451625730850        6.12517311011057       -3.81255452182084
C           94.17352218658321        5.07492668446495       -2.91226908924214
C           95.93432512180989        2.20645087770485       -1.83190493448960
C           97.22573756276641        2.75687438856553       -2.20400556673257
C           98.15542018224518        2.00849203622843       -1.57540338721629
N           96.10073198891222        1.15776518745400       -0.97988477475448
C           97.43061910766562        1.00877016232732       -0.81577165111893
C           98.07642658163192        0.03013307823848       -0.03357640146323
C           97.43955000078013       -0.94997640287574        0.75202543691426
C           98.07886865726340       -1.95892533772328        1.51787093066287
C           97.10699041124892       -2.69762390657260        2.13524457642754
C           95.84509491439744       -2.15327226754915        1.77099088053018
N           96.09700879596953       -1.10531761946928        0.92678926423334
C           94.58003561665180       -2.60509867031889        2.16637340750060
C           94.55457092556883       -3.74601902094769        3.11236863416774
C           93.94573428022886       -4.95057122207625        2.74906904331627
C           93.92495270576951       -6.01865138700361        3.62815427543282
C           94.50911307536857       -5.90171916154191        4.89166830862874
C           94.50010818036986       -7.02432663493881        5.84764898573729
O           94.99452294215352       -6.97230198827500        6.94453424686813
C           95.11550311613472       -4.69533136641951        5.25702639600966
C           95.14059151471483       -3.63089002563912        4.37674361629415
C           93.35915225378044       -2.07132836188010        1.74785574806088
C           92.06794774856316       -2.52978896752160        2.22957599757460
C           91.13834786191501       -1.77720062758483        1.60614769640062
C           91.86280659892439       -0.85455846407742        0.75414052186210
N           93.19346213751191       -1.04815418126322        0.86653789821441
H           90.14618500595063        2.07903562892281       -1.84639337540798
H           92.04201472314170        3.50646353131176       -3.07646868697685
H           93.91342679076769        0.70500160782515       -0.53204302336880
H           95.76875666285558        2.71958000582131       -4.76164860267165
H           95.82171490432276        4.60561129811560       -6.37521235009338
H           94.37322571070241        8.00533864719837       -5.69061488255311
H           93.76713280485596        7.08142166957000       -3.54443941967612
H           93.72340238994941        5.21049829363932       -1.93522505611915
H           97.37824509551245        3.60921424822475       -2.84589571512701
H           99.22883459007119        2.10685568622899       -1.60082233021966
H           99.14605162823450       -2.09871512888600        1.57812460739772
H           97.25000366506633       -3.55056902612982        2.77821182871771
H           95.38124825938318       -0.53364249477019        0.49071144100914
H           93.50319567640621       -5.04839225986768        1.76421495543541
H           93.45541050137932       -6.95208643231212        3.33530345129184
H           93.99410348826414       -7.93913243045762        5.47206056691254
H           95.56241818964790       -4.61188242864198        6.24188128549574
H           95.59914840583072       -2.69279575210555        4.66862962101772
H           91.91540230254405       -3.31023240841440        2.95719000352266
H           90.06524326163135       -1.81601064673901        1.70290819749930
C          104.67941609131096       -0.01166513642078       -0.01293880938197
C          105.30498964647127        0.91412807137961       -0.87079458855059
C          104.65436269027020        1.81598995013373       -1.75169482268722
C          105.61750051425030        2.54726210068250       -2.39179982806013
C          106.88461443599263        2.11869381638056       -1.91106535760907
N          106.64519648052270        1.12318709584461       -1.00227620143557
C          108.14423482968613        2.59572823921094       -2.29553845834573
C          108.15755562168401        3.70728302842055       -3.27611682126236
C          108.77230423928310        3.54326795640899       -4.52129573771602
C          108.78381874192576        4.57887112371092       -5.43549395315434
C          108.18566997247649        5.80445006346109       -5.12432656778793
C          108.21658790336205        6.89601377503267       -6.11541608289474
O          108.73521974559517        6.80128905309581       -7.19804370928708
C          107.57255976263789        5.97016523667162       -3.88023598459518
C          107.55631035111949        4.93066572077158       -2.96724592363148
C          109.37068227579977        2.11435135756119       -1.83392264958750
C          110.65493763363820        2.68061171793898       -2.20646825003500
C          111.59346451098421        1.95222641238389       -1.56742272675636
N          109.54954324239402        1.07827744771208       -0.96884299462448
C          110.88092474523359        0.94992497760295       -0.79987433449637
C          111.53823609412780       -0.01445873449015       -0.00943089713650
C          110.91260311362194       -0.99137200289027        0.78960331548070
C          111.56327163202089       -1.98842134629729        1.56101438923184
C          110.60022718058070       -2.72315579857181        2.19717804424718
C          109.33300668197921       -2.18754044382654        1.83958938332513
N          109.57237516460727       -1.15029714730749        0.97876684782316
C          108.07331740109856       -2.63414448427141        2.25937480549637
C          108.06225870289215       -3.75810206453753        3.22554538366690
C          107.44464149102328       -4.96725833362918        2.89347963546339
C          107.43933627919044       -6.02122299585617        3.78967152037890
C          108.04850271010801       -5.88544181061410        5.03938400102829
C          108.05902450209234       -6.99359977113361        6.01228288587393
O          108.57934551657362       -6.92625148365764        7.09619054377257
C          108.66276753666236       -4.67415485330167        5.37399994058966
C          108.67189539473264       -3.62365915824420        4.47681065638489
C          106.84680344052987       -2.11054240374031        1.84620455778554
C          105.56252279645273       -2.55592305812737        2.35714751544746
C          104.62400189475277       -1.82332719106201        1.72280995804634
C          105.33654943079628       -0.92694445551658        0.83389182945399
N          106.66792210716117       -1.11264097360209        0.93744028259265
H          103.58613902676328        1.88572422316866       -1.87850055501181
H          105.46492619929653        3.30914363391948       -3.13857965677280
H          107.36752053510827        0.61266351704237       -0.50538819063323
H          109.22610936544309        2.59060201318880       -4.76975397198366
H          109.25393591862276        4.45791387644636       -6.40552407024858
H          107.71638618465327        7.82981207253235       -5.78102931092593
H          107.10966782673448        6.91893716524100       -3.62894106099097
H          107.09223951618389        5.06756452455615       -1.99692406124441
H          110.79710531796414        3.52878108985271       -2.85619612503384
H          112.66538439704702        2.06626253524555       -1.59020397682966
H          112.63150533188262       -2.12360315424442        1.61239521851377
H          110.75314325834997       -3.56774046620920        2.84882463194797
H          108.85009897021131       -0.58726163335931        0.54221190756347
H          106.98335780629347       -5.08011248830394        1.91887036632774
H          106.96310540340578       -6.95845751264422        3.52070935102895
H          107.54235364388622       -7.91261740658451        5.66245547672757
H          109.12883427072622       -4.57588352603677        6.34855566574354
H          109.13670331789875       -2.68165164901076        4.74524507847895
H          105.42030665899624       -3.31416795592702        3.10991757362089
H          103.55210989482366       -1.86056297955933        1.83341629632408
C          118.14107218773744       -0.01630986561467       -0.00520613296139
C          118.76539758615203        0.90929976049027       -0.86412658193908
C          118.11354153077879        1.81123892917226       -1.74407355143441
C          119.07575001386033        2.54330150426746       -2.38463550682981
C          120.34358013728000        2.11501851682553       -1.90538154855020
N          120.10536970164816        1.11897327263343       -0.99676734567089
C          121.60252317277980        2.59249270960707       -2.29130958374787
C          121.61378238768781        3.70547008658774       -3.27033977936730
C          122.22525825597880        3.54364964732951       -4.51739073084421
C          122.23354945033218        4.58060890196505       -5.43012478066207
C          121.63553303028357        5.80537592514456       -5.11554320202659
C          121.66215519045784        6.89814707840372       -6.10544499170769
O          122.17670365385402        6.80500321455822       -7.19014860739099
C          121.02613831827861        5.96906136855332       -3.86936153528538
C          121.01300577974298        4.92819687929259       -2.95789844183473
C          122.82981543310294        2.11051766920331       -1.83224337015128
C          124.11365014018858        2.67627827464256       -2.20698034911069
C          125.05301275919817        1.94739380549707       -1.56967335936440
N          123.00970385829694        1.07417764537726       -0.96785765010220
C          124.34143400883710        0.94529495047124       -0.80104019460299
C          124.99947288425334       -0.01930775947543       -0.01175677574638
C          124.37485686449001       -0.99643666287424        0.78787153872833
C          125.02663982551860       -1.99417804435894        1.55740792486599
C          124.06459979417922       -2.72825940909800        2.19587299049221
C          122.79701629079189       -2.19141110777783        1.84167933850362
N          123.03495215140161       -1.15449921993861        0.98017924529384
C          121.53797509685177       -2.63625558796260        2.26554410538800
C          121.52833441121889       -3.75853082502122        3.23359116104647
C          120.90675242247229       -4.96694896331752        2.90623412593923
C          120.90196860857368       -6.01894368088021        3.80473315939116
C          121.51575755545049       -5.88194563088945        5.05205227309285
C          121.52636142176443       -6.98781053603737        6.02753857733639
O          122.05036778200331       -6.91934867241836        7.10960144450289
C          122.13441581281086       -4.67155463002130        5.38179329822311
C          122.14293848142857       -3.62301914403638        4.48232610581698
C          120.31107879029048       -2.11194241698538        1.85482758233525
C          119.02758728139021       -2.55515452188130        2.36959933559720
C          118.08824143959046       -1.82361522858492        1.73530037186705
C          118.79956686736857       -0.92975983307063        0.84280403789215
N          120.13091141027186       -1.11571763148346        0.94430354649644
H          117.04515102869412        1.88054364879301       -1.86974315366594
H          118.92217091142984        3.30555761845645       -3.13083115584131
H          120.82839614029200        0.60853246891287       -0.50082033133398
H          122.67883402442905        2.59159746507535       -4.76859879794675
H          122.70085634101153        4.46129164433426       -6.40171707536916
H          121.16265765265777        7.83124464763071       -5.76804962286926
H          120.56350328500824        6.91723106965390       -3.61533558504237
H          120.55157793554257        5.06337324005603       -1.98607469705063
H          124.25503304943108        3.52434109425483       -2.85702517181581
H          126.12496643457511        2.06079608351076       -1.59432160241485
H          126.09486429913353       -2.13037328091838        1.60607791984672
H          124.21847498362631       -3.57320868255086        2.84681524998934
H          122.31202522251029       -0.59071366572417        0.54568121864323
H          120.44183734423653       -5.08080055607235        1.93346684931548
H          120.42244041515578       -6.95556085983968        3.53949936037757
H          121.00572353003946       -7.90609477448099        5.68168659858310
H          122.60423299629930       -4.57235951546601        6.35445185395613
H          122.61102996120498       -2.68159432729815        4.74708139889062
H          118.88643064679860       -3.31130085204884        3.12467060174702
H          117.01657734082428       -1.85991639577087        1.84834628540871
C          131.60235160818550       -0.05200100080995        0.01803398415923
C          132.23823933306716        0.87292679486968       -0.83260556667260
C          131.59862300150422        1.78131857022864       -1.71526154746104
C          132.56959871840559        2.51541459586469       -2.33963626397556
C          133.83104634741485        2.08273563559372       -1.84677560653599
N          133.58003979368419        1.08038676338057       -0.94853651578022
C          135.09522265758008        2.56536279985995       -2.20662688251811
C          135.12402645707459        3.68659777580145       -3.17524922613896
C          135.76748445026618        3.53641224803278       -4.40777379637050
C          135.79096455345146        4.57839555085181       -5.31433596022590
C          135.17690177232214        5.79727110539119       -5.00779699996753
C          135.21868717660641        6.89499660130663       -5.99161775261849
O          135.75490754931673        6.80917720194874       -7.06643829621353
C          134.53680725139353        5.94994456817217       -3.77566664681282
C          134.50816138621678        4.90379179425204       -2.87059209960242
C          136.31499476465541        2.07681601495722       -1.73229547859114
C          137.60433001785790        2.65474048110739       -2.06883278685188
C          138.53383432167109        1.90851945944788       -1.43767556931011
N          136.48069068164463        1.01837707707398       -0.89429660804906
C          137.81110595761675        0.88213528348757       -0.71222735163192
C          138.45548553259471       -0.11983543528146        0.03765273388027
C          137.82010408228373       -1.12306845189407        0.79232511997932
C          138.45875678066324       -2.15645024285218        1.52595458506642
C          137.48812578567942       -2.89094032776670        2.15012299758046
C          136.22784500707925       -2.31966779678344        1.82300163603368
N          136.47823955731857       -1.26484389334405        0.98789811187797
C          134.96444864614247       -2.74536264875846        2.25348972042248
C          134.94053649290873       -3.87865131971054        3.20795844862754
C          134.27925550905886       -5.06558811425896        2.87948975042842
C          134.25804729216566       -6.12566236014102        3.76819630496101
C          134.89502012410688       -6.01865525385244        5.00682709296308
C          134.88697351523442       -7.13286716298432        5.97269731480658
O          135.42722056470882       -7.08895339355121        7.04811034106305
C          135.55460990768466       -4.83025684837272        5.33732660590854
C          135.57938301509162       -3.77378168802906        4.44759459552458
C          133.74498311691298       -2.18941455052647        1.86171294179686
C          132.45668092402761       -2.61132549825921        2.38266932315905
C          131.52694697419815       -1.86078024232452        1.75646251607672
C          132.24916443109595       -0.97529671219016        0.86427571624047
N          133.57766720988280       -1.18385043277445        0.95932411888969
H          130.53193532252766        1.85313952809698       -1.85344255027646
H          132.42632780537377        3.28215719005057       -3.08328010414191
H          134.29633779226972        0.56469508958877       -0.44829402549167
H          136.23358711387542        2.58885024932141       -4.65301152239443
H          136.28264744500225        4.46763357472186       -6.27484618007059
H          134.70838242010475        7.82427869582235       -5.65996863168715
H          134.06195974442250        6.89366172222459       -3.52767791175165
H          134.02276491866215        5.03078606111726       -1.90940246420085
H          137.75497353087559        3.52218916809499       -2.69058687316686
H          139.60581362821500        2.02355901878492       -1.44125887550143
H          139.52470220695523       -2.31299521513813        1.56229545451720
H          137.63063136439513       -3.75761850694789        2.77458386108108
H          135.76267596931231       -0.67458613643211        0.57703291578495
H          133.79583810746010       -5.15661864431877        1.91336384325998
H          133.74692469068538       -7.04520938228009        3.50222150474827
H          134.33535889473731       -8.03273860565216        5.62645465019345
H          136.04262249771307       -4.75419390712513        6.30309339559762
H          136.07884958229297       -2.84896936248469        4.71364027656730
H          132.30615872777105       -3.36750206569490        3.13589936318951
H          130.45545234260854       -1.87839673784882        1.87552915969970
