370
 energy: -646.567444442285 gnorm: 0.000941539451 xtb: 6.5.1 (b24c23e)
C           77.52165060573827        0.08239376230906       -0.02376439998737
C           78.13423598644755        1.32725720324047       -0.08519362662126
C           77.48658538252245        2.59446048216617       -0.10835073636047
C           78.45114244847258        3.55915628803751       -0.18350287174202
C           79.71932828057533        2.91150894860807       -0.22061512462899
N           79.47757092929635        1.56935667132417       -0.14745326234259
C           80.98428635482112        3.50525530058666       -0.29848746227775
C           81.02170226978063        4.98421419650130       -0.39115864338655
C           81.66356139072872        5.73696931714194        0.59531430977430
C           81.69620287898508        7.11761683195157        0.51906532254090
C           81.08847988648823        7.77481538272503       -0.55494736118544
C           81.12137605999733        9.19557222473555       -0.63746169489690
N           81.14829271870883       10.34409838002169       -0.70415143808035
C           80.44796107038090        7.02622209235735       -1.54679360304681
C           80.41411572162346        5.64589618293664       -1.46083525148171
C           82.19760837945314        2.81206018506946       -0.29367359365642
C           83.49442115676192        3.44645581450103       -0.45011154248178
C           84.41226383218465        2.45971144547855       -0.38885026512855
N           82.34856575714117        1.46586251498199       -0.16318700901903
C           83.67488419823125        1.22480701044352       -0.20273444366218
C           84.30862937657477       -0.02565497943681       -0.06033592413819
C           83.67048675122574       -1.27115297128738        0.08803107791255
C           84.31167529867886       -2.52715187015631        0.25610743736695
C           83.34272459801417       -3.48904688508985        0.32975506238253
C           82.07870128140128       -2.84924509857251        0.19970228771440
N           82.32849766568309       -1.50908311145946        0.06850749986525
C           80.81477204049527       -3.44930985156900        0.22156673046399
C           80.77856971914342       -4.92649494555677        0.32931553976192
C           80.13759908720365       -5.54386313798507        1.40637555924846
C           80.10141783106764       -6.92274379322579        1.50918558431967
C           80.70492527474244       -7.71517208880590        0.52806278858939
C           80.66706440158025       -9.13458323080138        0.62859150984478
N           80.63522883552058      -10.28196809840081        0.70901702352765
C           81.34625688855378       -7.10281239588684       -0.55281139187485
C           81.38328426503112       -5.72323276542761       -0.64621130871011
C           79.59957983137680       -2.75951802773959        0.14686588550971
C           78.29373375091139       -3.40049648605622        0.11399227863942
C           77.38305975826188       -2.40876695083982        0.04917338443471
C           78.13126608668838       -1.16400909346218        0.02916816067849
N           79.46285048246197       -1.41445586994468        0.07815375416063
H           76.43641474165180        0.09471590990465       -0.01739215208009
H           76.41850245667517        2.73599700020844       -0.06550025579321
H           78.30327200900304        4.62668903027060       -0.20316697982575
H           80.20052411108003        0.85769951818364       -0.13716960978364
H           82.12509556101688        5.23147198986787        1.43600684030607
H           82.19064222702275        7.69478806831578        1.29160735769017
H           79.98005997027727        7.53186805643668       -2.38336721564959
H           79.92843844093365        5.06897294510972       -2.23981744736858
H           83.65782435829594        4.50110154827523       -0.60173787760717
H           85.48521654882781        2.53318599589106       -0.46608972833805
H           85.37899130863957       -2.66631111231320        0.31656781951963
H           83.48759686176331       -4.54747112609957        0.47224533294232
H           81.60799510444797       -0.80077403103102       -0.02554906656391
H           79.68011996218141       -4.93311808710613        2.17642516051580
H           79.60700848913129       -7.39380562656482        2.35065860974681
H           81.81167006654458       -7.71355863873777       -1.31756783094690
H           81.86862087483836       -5.25324140132013       -1.49422395093638
H           78.12222615561508       -4.46478554592177        0.12494447197230
H           76.30758447544574       -2.48083719083847        0.00800100913730
C          151.55524169830042       -0.12089592074036       -0.01218596212224
C          150.94660134222659       -1.32397012201709        0.32087474806686
C          151.59920144938883       -2.53800723515646        0.67575104497759
C          150.63746049296523       -3.47585361806580        0.92507914145101
C          149.36590721158322       -2.86741412862397        0.72019767714072
N          149.60328413375373       -1.56990517919540        0.36636957661770
C          148.10231686114838       -3.45011005989514        0.87076548136725
C          148.07153312268832       -4.88429034221041        1.24510545658660
C          147.47058892677106       -5.29216345427258        2.43836504244323
C          147.44256690358378       -6.62901052225616        2.79245417216086
C          148.01400521601616       -7.58898960360313        1.95185037052298
C          147.98410409112665       -8.96615617776785        2.31100379394445
N          147.96034880126902      -10.07950979238553        2.60131842368168
C          148.61490208100221       -7.18641584678684        0.75551263633993
C          148.64426633075510       -5.84705278158278        0.41064262791721
C          146.88581082456602       -2.78663853076659        0.69155965790506
C          145.58817689298490       -3.43034163362347        0.79393464846409
C          144.66762905411971       -2.47576110177919        0.54688353510238
N          146.73166147091635       -1.47274242522999        0.37118448243708
C          145.40387710471839       -1.25390186162829        0.28505951815808
C          144.76735107412372       -0.03386272247268       -0.01887078987208
C          145.40181486630306        1.18572012451069       -0.32010610769893
C          144.75615064229228        2.42261626774231       -0.58516537557573
C          145.72226197235750        3.36138848659656       -0.81900813420785
C          146.98909753758048        2.72234659562218       -0.71521374792092
N          146.74331866644718        1.41098566109222       -0.40534015342206
C          148.25189121697110        3.30555821147164       -0.86580895487344
C          148.28667900860316        4.74558215626853       -1.21334561333344
C          148.90604865463462        5.66231610880930       -0.36004495329424
C          148.93982027899435        7.00842095946284       -0.67597742849438
C          148.35590857272669        7.46504500548874       -1.86141352178899
C          148.39115591761552        8.84944849981394       -2.19086567024788
N          148.41837630616911        9.96855645551893       -2.45758327187714
C          147.73755208055138        6.55171354285439       -2.72047814162531
C          147.70254476044042        5.20757811685314       -2.39524379028191
C          149.46891647887281        2.63238304578112       -0.71175467393685
C          150.77298028262061        3.23746647380586       -0.93630824029540
C          151.68651935738555        2.27544450115239       -0.69764241106311
C          150.94194635983268        1.08174681567923       -0.33661936155170
N          149.60957100040628        1.33163618372181       -0.36440857088784
H          152.64051318355064       -0.13099531604996       -0.01607297284327
H          152.66861087201443       -2.66237193987521        0.73543121623076
H          150.78945421565410       -4.49759496497714        1.23302076759207
H          148.87754375738183       -0.88827245593082        0.17158116645405
H          147.03718043543628       -4.54945317515061        3.09853964509903
H          146.97940836877359       -6.93704957907484        3.72251567315421
H          149.05522010240114       -7.92802791458947        0.09930632830355
H          149.09860686473610       -5.54107973606822       -0.52503636581577
H          145.42535591922694       -4.47378899638121        1.00981838585060
H          143.59332638164486       -2.56590466358824        0.52874538310129
H          143.68791216275460        2.56766990313760       -0.58581326050717
H          145.57337095658283        4.40698252969186       -1.03370115215575
H          147.46642703083091        0.71598493374439       -0.25109300502135
H          149.34849502573806        5.31401900215824        0.56636714089815
H          149.41696090097906        7.71386453748828       -0.00581578722793
H          147.28809324958479        6.90120255536022       -3.64258906397649
H          147.23500905552842        4.50119252054294       -3.07195617983827
H          150.94104672854803        4.25539228331293       -1.24912571731441
H          152.76180055943334        2.33467225510641       -0.75922150027656
C           86.93763861432906       -0.05875561016745       -0.06285446984714
C           85.71578012187587       -0.04445614663749       -0.06265076362244
C           88.28775084278872       -0.06816317340291       -0.06483188738925
C           89.50976762326762       -0.07559193130276       -0.06495492210052
C          100.40098042700598       -0.03962998244935       -0.02951990166070
C           99.17823705845645       -0.04453561784423       -0.03491433507038
C          101.74936285463463       -0.03469397501963       -0.02800161440474
C          102.97216623771081       -0.03236045064389       -0.02507064092528
C          113.86381974221734       -0.01253576741477       -0.01074089430518
C          112.64101670298099       -0.01294735974161       -0.01258877205121
C          115.21211769909792       -0.01348253793642       -0.01329544509989
C          116.43495654250317       -0.01774684142690       -0.01511945930839
C          127.32614279087832       -0.01907018510262       -0.01774917161083
C          126.10335297906680       -0.02163350117740       -0.01985880317380
C          128.67451581955862       -0.01491890532753       -0.01963943353997
C          129.89725187866406       -0.01445313403072       -0.02075577135220
C          140.78838874130662       -0.00134524831515       -0.02934047555255
C          139.56630781439046        0.00209300468501       -0.03460379586364
C          142.13838234464635       -0.00568956544252       -0.02537868466082
C          143.36028166364289       -0.01919385681523       -0.02346360980968
C           90.91611295641414       -0.07547758431841       -0.06547035674709
C           91.54063666299297        0.85861629398263       -0.91373898627658
C           90.89019781750049        1.80721919494673       -1.74452736876186
C           91.85288360171813        2.49288633072061       -2.43372743844489
C           93.11971723670686        1.97529959348784       -2.04900699653122
N           92.88084352959179        0.99983621232897       -1.11899307778693
C           94.37827668473058        2.38103866653763       -2.51127488472286
C           94.38804470732549        3.42346648906950       -3.56587461516681
C           93.77382524356391        3.18905127306568       -4.79846370846457
C           93.78377450412110        4.15710369898704       -5.78654971311327
C           94.40642016880827        5.38738676996573       -5.55594573721118
C           94.41559279715494        6.38715511072995       -6.56935395827913
N           94.42194645248607        7.19405685482923       -7.38973918068316
C           95.01963058208716        5.62834784920783       -4.32287753177698
C           95.01097488261409        4.65346245629800       -3.34156652643480
C           95.60468803554502        1.88577499852034       -2.06535832214293
C           96.88843456625278        2.28710532473467       -2.61279635634297
C           97.82761652151983        1.60943242547043       -1.92095223115063
N           95.78466523895631        0.96419483750965       -1.07909269752653
C           97.11587089010072        0.78844935644979       -0.96126245897595
C           97.77388671906894       -0.05224110882040       -0.04053169907427
C           97.14854509361560       -0.91063309976073        0.88459228054717
C           97.79827456001038       -1.73423499506576        1.83990115936875
C           96.83542018752819       -2.42316004523306        2.52557433831450
C           95.56921194745908       -2.04691313110720        2.00003411031297
N           95.80910512697497       -1.12200980011084        1.01928649027311
C           94.31082090870279       -2.51069890020644        2.40240196340584
C           94.29694503204641       -3.54480789389084        3.46516480085985
C           94.91571984510587       -4.78071367665007        3.26341492100997
C           94.90251549788542       -5.74557467118767        4.25473504618451
C           94.27231157427290       -5.48754028711112        5.47566014345098
C           94.26091620601402       -6.47598595327607        6.50010816265829
N           94.25143831725528       -7.27584411048784        7.32729438960175
C           93.65370550740906       -4.25113374498544        5.68354181124820
C           93.66523464896525       -3.29352566203902        4.68553226848691
C           93.08508905844172       -2.07981207305058        1.89056488011098
C           91.80292871203174       -2.63726206424005        2.28325087970224
C           90.86367078679653       -1.95983823413340        1.59126405359968
C           91.57365931761879       -0.99685298026880        0.77280896996284
N           92.90526395587575       -1.10217450082010        0.96121242082146
H           89.82228641062683        1.94384409969291       -1.79903308634528
H           91.70052520338703        3.29318308245928       -3.13926374912799
H           93.60301583183858        0.46246397126389       -0.65107233355760
H           93.30155639613484        2.23135662304119       -4.98645081591175
H           93.31097643188812        3.96495705209300       -6.74257682998122
H           95.50004689679923        6.58223641497051       -4.13932691803551
H           95.47695850436379        4.84853342164635       -2.38236777474715
H           97.03003692420533        2.98140157491477       -3.42505034227378
H           98.89942325204626        1.63786163561347       -2.03505965846366
H           98.86576308934364       -1.78286922386133        1.98206619471828
H           96.98719018892974       -3.12323636346948        3.33076144272008
H           95.08745460817748       -0.65875859648079        0.47720099381681
H           95.39416330953651       -4.99006586404884        2.31327154917482
H           95.37896505511577       -6.70457878864521        4.08822451042594
H           93.16713966499135       -4.04630377636890        6.62995187400075
H           93.19468416660762       -2.33157993696467        4.85442166066066
H           91.66305831084492       -3.44626378569459        2.98171067115088
H           89.79280799321849       -2.08429023782313        1.60972980358852
C          104.37648919144523       -0.02922600712190       -0.02455287498588
C          105.00109180289945        0.86495089617715       -0.91590592776878
C          104.34981266058669        1.77827900297740       -1.78433512249144
C          105.31259597197300        2.44698770237080       -2.49015466954093
C          106.58015565930914        1.95300283594322       -2.07837996771693
N          106.34127916279968        1.00659040192706       -1.11836676273600
C          107.83927411914711        2.35727416833082       -2.53990150613514
C          107.85015597168598        3.37802614996715       -3.61582797548771
C          107.25716741378599        3.11175588004978       -4.85216552000967
C          107.26831033564501        4.06125350693068       -5.85818265993619
C          107.87036995943724        5.30428739155875       -5.64198933716637
C          107.88027724735673        6.28509503082552       -6.67380919073002
N          107.88769047709327        7.07785174785841       -7.50795535427774
C          108.46246835981611        5.57689608351597       -4.40520302759624
C          108.45318257659166        4.62039709807530       -3.40598366503587
C          109.06615852776068        1.88143528265270       -2.07468552988076
C          110.35001625338248        2.27964728574033       -2.62393815633206
C          111.28970504354643        1.61750604235624       -1.91788057171972
N          109.24667547758149        0.97934648919034       -1.07064522571267
C          110.57825133912866        0.81029425467225       -0.94645736387738
C          111.23677040576811       -0.01586522462316       -0.01307997192397
C          110.61202351267862       -0.85636576038240        0.92900080050520
C          111.26297710290865       -1.66873294047937        1.89281874077636
C          110.30018429276242       -2.33809168843027        2.59797271418841
C          109.03299892970843       -1.95970140868080        2.07701161025097
N          109.27207531725422       -1.05483822733516        1.07770376202702
C          107.77408926788623       -2.40158041269310        2.50281743027707
C          107.76283447750288       -3.41620078876844        3.58461326418427
C          108.35820062788413       -4.66499242291716        3.39223414581732
C          108.34636761484602       -5.61384813298980        4.39887932719767
C          107.74141397699736       -5.32625145321673        5.62592966377174
C          107.73100252703777       -6.29878697294214        6.66553916226299
N          107.72298429368792       -7.08501901644135        7.50566173276283
C          107.14696094426753       -4.07656461311179        5.82457905966133
C          107.15678150797365       -3.13499873850429        4.81128921496431
C          106.54732459913660       -1.96951750930933        1.99625531132134
C          105.26402570637009       -2.49946713837404        2.42135098882073
C          104.32426007346663       -1.83664213290877        1.71600175163575
C          105.03519808184831       -0.91124439161741        0.85602952937056
N          106.36664673808477       -1.02041336588125        1.03667183075060
H          103.28139192399060        1.90553795167097       -1.85040280371623
H          105.15958557939271        3.22118678915670       -3.22408929187405
H          107.06382222054867        0.49166850511945       -0.62637111040014
H          106.80066993873236        2.14427864744230       -5.02855132057727
H          106.81225260939080        3.84466523014899       -6.81710233880501
H          108.92700692663095        6.54068685911717       -4.23287246971283
H          108.90309415001160        4.83941289121265       -2.44427386361938
H          110.49121050162991        2.96103015072757       -3.44712899893094
H          112.36175092221850        1.64850316281374       -2.02899031792236
H          112.33115992255060       -1.72370471179294        2.02716297905983
H          110.45278469021366       -3.02591203590498        3.41349899009283
H          108.54978118033250       -0.59591140177190        0.53277364254766
H          108.81712473113572       -4.89682885025280        2.43769301926413
H          108.80414995684423       -6.58312406193260        4.23962304329000
H          106.68015623497234       -3.84890708803536        6.77570897747367
H          106.70484124949787       -2.16289094900653        4.97262959784939
H          105.12333255759125       -3.28199636060139        3.14916336996000
H          103.25251830641767       -1.94982922063673        1.74965817418640
C          117.83919237816785       -0.02145313049727       -0.02037203654224
C          118.46447309355113        0.86826968711716       -0.91569233574175
C          117.81396616799088        1.78113550576873       -1.78528287884461
C          118.77708638992706        2.44386842149594       -2.49620335503261
C          120.04407536352610        1.94703137502568       -2.08603480871319
N          119.80452508482401        1.00449931442714       -1.12230409619346
C          121.30320569897351        2.34674063216277       -2.55108040769681
C          121.31453225473012        3.36376539311696       -3.63059376533254
C          120.72151868694348        3.09303404328131       -4.86593434404724
C          120.73335970429262        4.03864264417474       -5.87562573461340
C          121.33597415714881        5.28221445726791       -5.66403900070484
C          121.34740522318550        6.25908162011541       -6.69957261555704
N          121.35366606784464        7.04818219146261       -7.53712349649465
C          121.92782343206720        5.55933358379493       -4.42815221989827
C          121.91799428452784        4.60664807309336       -3.42530201718912
C          122.52983920767564        1.87020227841276       -2.08578621061959
C          123.81388784064094        2.26621787188774       -2.63605520850638
C          124.75316089580271        1.60523772417851       -1.92832701525653
N          122.70966430113994        0.97009775032118       -1.07993289666583
C          124.04117939386491        0.80017424291346       -0.95554683644410
C          124.69902665517759       -0.02583639054396       -0.02163059716381
C          124.07376953637899       -0.86716002060772        0.91932458365649
C          124.72437350721889       -1.68205815385251        1.88120139435208
C          123.76127405339939       -2.35227658639498        2.58515978887359
C          122.49421169092203       -1.97130128632392        2.06584798317877
N          122.73363970134483       -1.06464099867580        1.06834111680435
C          121.23494311233792       -2.41160601938531        2.49270138701708
C          121.22367305074584       -3.42981737838319        3.57104970449212
C          121.81794194897654       -4.67838624526194        3.37361190413317
C          121.80631192833835       -5.63093274930843        4.37674372586273
C          121.20249337982949       -5.34748943012794        5.60533265846600
C          121.19207920997007       -6.32390792514181        6.64127628556033
N          121.18415735726335       -7.11297005193427        7.47863062876752
C          120.60925704893448       -4.09805492140037        5.80912486920584
C          120.61904847795873       -3.15268795926632        4.79937248387641
C          120.00837060182523       -1.97413138001684        1.99052439558329
C          118.72415107104622       -2.49965717107428        2.41844164188583
C          117.78493677602938       -1.83056778391924        1.71832032955655
C          118.49708855979932       -0.90652941994355        0.85785312827024
N          119.82854590904716       -1.02194672268419        1.03369015454150
H          116.74581375294606        1.91189837520391       -1.84879223777839
H          118.62490700562084        3.21591013934410       -3.23258972459056
H          120.52663622063947        0.48854367483945       -0.63076005295445
H          120.26446946274127        2.12513140543069       -5.03854068081118
H          120.27752126851345        3.81853269034306       -6.83384754293703
H          122.39272736686873        6.52358247138259       -4.25943381826506
H          122.36789112353330        4.82910080037598       -2.46437909947598
H          123.95553059410305        2.94577665090043       -3.46067574044480
H          125.82521637576922        1.63529670384477       -2.03957207909126
H          125.79257140846137       -1.73834181415282        2.01487073304861
H          123.91364036731761       -3.04203473229054        3.39909014859667
H          122.01144938129536       -0.60375596724598        0.52492971302972
H          122.27581073776381       -4.90708356203863        2.41780286242356
H          122.26334979590496       -6.59990370905156        4.21354547060763
H          120.14344760790453       -3.87355297938526        6.76149495773953
H          120.16821349223972       -2.18077042076036        4.96488745597329
H          118.58233287426187       -3.28360717092557        3.14450087577640
H          116.71281612023745       -1.93902316043292        1.75545725172173
C          131.30167701747081       -0.01224992632432       -0.02501331456903
C          131.92362147956487        0.88906286371235       -0.91079662389411
C          131.26922342957837        1.80663860826601       -1.77271980029405
C          132.22967975795848        2.48571418281545       -2.47140824402528
C          133.49928274607001        1.99496453855175       -2.06126411483535
N          133.26334492845129        1.03838021258034       -1.11043777500605
C          134.75669843532833        2.41481623752136       -2.51216173799505
C          134.76366910407921        3.44676055893765       -3.57749348374252
C          134.18219529421049        3.18471987485291       -4.82022809267654
C          134.19093065298878        4.14237641516144       -5.81847053100857
C          134.77898335126432        5.38954011515306       -5.58788087950052
C          134.78790397580349        6.37818314019141       -6.61217462605177
N          134.79445881104118        7.17663944652502       -7.44072639903155
C          135.35859003962403        5.65825403192761       -4.34434720037437
C          135.35167194534557        4.69366703627353       -3.35285182638497
C          135.98575498899709        1.94289980288209       -2.04723185107286
C          137.26930095567397        2.36519978943493       -2.57932214598438
C          138.21068026700218        1.69428557065598       -1.88402018042543
N          136.16797136894579        1.01976817518706       -1.06378476458973
C          137.50086732059728        0.85624420880605       -0.93782735331272
C          138.16006724475287       -0.00092573836170       -0.03507826373939
C          137.53847303280585       -0.87457056567342        0.87749847517689
C          138.19329151389385       -1.71794527554035        1.81199779726261
C          137.23314771562713       -2.39969750801289        2.50839571646118
C          135.96330521565199       -1.99874781047808        2.01089839323941
N          136.19849847775600       -1.07050110294138        1.03261796462712
C          134.70547045377066       -2.43745333770288        2.44342591553804
C          134.69778676191464       -3.46922572369608        3.50891214039475
C          135.28086837673564       -4.71962779935562        3.29111444206372
C          135.27401382052727       -5.68295884629315        4.28400584098344
C          134.68597371888288       -5.40892151359532        5.52233450584941
C          134.68085260903408       -6.39596131231445        6.54818840298918
N          134.67821840322145       -7.19353576828292        7.37754650910790
C          134.10317373599909       -4.15798675646218        5.74617977843793
C          134.10840539284200       -3.20170060774221        4.74678155622370
C          133.47709631364182       -1.98571244343824        1.95863207853811
C          132.19382260113971       -2.51082273247683        2.39009861907432
C          131.25250582343216       -1.83324951223147        1.70115598087394
C          131.96230196074072       -0.90335995962151        0.84489187490870
N          133.29435532978883       -1.02311448370987        1.01292612875274
H          130.20028528071876        1.92925550193808       -1.83931211164066
H          132.07416989741583        3.26523466471928       -3.19917054479871
H          133.98766465757751        0.52180164691860       -0.62281696793274
H          133.73682698580544        2.21412784024729       -5.00765760392147
H          133.74417474706689        3.92894013969059       -6.78246596816643
H          135.81186402813753        6.62533205778033       -4.16079344832332
H          135.79187852231087        4.90967227397176       -2.38599246861066
H          137.40943718007546        3.06782702701754       -3.38462923815123
H          139.28302149027198        1.73676043596437       -1.98818416366949
H          139.26230042697063       -1.78312367848175        1.93457091260732
H          137.38934380585269       -3.10996958030598        3.30373445606584
H          135.47367864578561       -0.59226009763982        0.50803058057758
H          135.72634897681067       -4.94107403226046        2.32777908243985
H          135.72276116890720       -6.65305502775858        4.10520660639430
H          133.64931102521604       -3.94091757040201        6.70601931952938
H          133.66607165906919       -2.22864844971077        4.92786257924153
H          132.05402347145753       -3.30057784972977        3.11023913474607
H          130.18030546901650       -1.93891982357579        1.74372004165857
