234
 energy: -398.601161955049 gnorm: 0.000637582374 xtb: 6.5.1 (b24c23e)
Fe          43.33034238647902       -0.00340681885182        0.01744056309069
C           39.93787058510079       -0.03002280686009        0.02493312221359
C           40.58996170635321       -1.23489884372787       -0.13618379991897
C           39.91087877550940       -2.48623052283089       -0.28818804186919
C           40.86787750426424       -3.44185871172531       -0.34518671161460
C           42.13102073607458       -2.77115748722796       -0.23343372274380
N           41.94752977624911       -1.42002623404121       -0.11748298254316
C           43.35321403474719       -3.43139941999765       -0.16682514743867
C           44.56299949313501       -2.76919334369747       -0.02289871029725
C           45.83201340404496       -3.43253313330781        0.03214063954829
C           46.77699752864702       -2.46429959487334        0.09305114847707
N           44.73611214049494       -1.40506615639875        0.00896498660000
C           46.08405171615233       -1.21409264603731        0.06502652417453
C           46.74285044881066        0.02138266790454        0.02901552772961
C           46.06607776375718        1.24681336113577       -0.01248953758467
C           46.73845189756661        2.50635211510667       -0.08365105184198
C           45.77824723703289        3.46089464950664       -0.04395505632933
C           44.52215298580457        2.77947941431998        0.06198433107838
C           43.30123638642341        3.42634907028088        0.18258265846541
C           43.28728050603654        4.90767373417199        0.25160043407270
C           42.65963239853706        5.65543874401425       -0.74531699322655
C           42.65197303626136        7.04071311733644       -0.68135307031758
C           43.26339453976645        7.69407067700237        0.38008718097478
C           43.88621935721271        6.95642156108551        1.37770097363937
C           43.90210315628049        5.57118985452233        1.31398963013749
C           42.08858452476631        2.74754083925271        0.24222350466314
C           40.81910133221505        3.39353059399927        0.41159838391696
C           39.87674202260786        2.42272537568414        0.36404061500878
C           40.57230335203700        1.18551762371104        0.17601193976879
N           41.92588505052712        1.39370312537404        0.12842837412871
N           44.71573348858373        1.41797482555400        0.05012505181941
C           43.36100855128232       -4.91321196280297       -0.24860813921473
C           42.97714553680866       -5.55611140749959       -1.42561471754552
C           42.98840767233656       -6.94084746701416       -1.50211836171354
C           43.37619309103806       -7.69752066502263       -0.40471894317870
C           43.75594185039134       -7.06407120296258        0.77073034375017
C           43.75183823140824       -5.67939397351605        0.84958820619741
H           38.85366994062682       -0.03940700643638        0.03595318651927
H           38.83924687511199       -2.59911559906382       -0.33290037641008
H           40.74273951581878       -4.50830677275707       -0.43970304444758
H           45.97166456835354       -4.50102328550784        0.01256454381116
H           47.84875327533764       -2.57089495933871        0.14090350141715
H           47.80718779174727        2.62814703463002       -0.15656280372491
H           45.89852197311595        4.53103550195740       -0.08803652962945
H           42.19119124329513        5.14633635515576       -1.58024925108926
H           42.16682248702286        7.61265035220002       -1.46454684448830
H           43.25450659301902        8.77701248273777        0.42973810044357
H           44.36225722121514        7.46207072069236        2.21051958066081
H           44.37966376309470        4.99540407357164        2.09893408417126
H           40.68074930264007        4.45304562477130        0.55377629021020
H           38.80559749441558        2.51557527213737        0.44865710266049
H           42.68365644485479       -4.96535038252210       -2.28616629637788
H           42.69351524917870       -7.43108223150642       -2.42330500499637
H           43.38233137511530       -8.77991944733911       -0.46547015619875
H           44.05673511879547       -7.65094575860836        1.63151731770391
H           44.03886493239052       -5.18533759821287        1.77111124791847
Fe          83.59005673037541        0.05859898374744        0.02329022356734
C           86.98174676259318        0.07741791827950        0.04609769738350
C           86.33262106467429        1.28897325169981       -0.07090302261485
C           87.01468086982419        2.54394845928067       -0.17059062625959
C           86.05995418064417        3.50337086840820       -0.18890718706452
C           84.79508810260573        2.83166514332711       -0.10638299129586
N           84.97539477304070        1.47639025636165       -0.04725887769958
C           83.57436977960707        3.49108783666428       -0.00998080874553
C           82.36329453507985        2.82541880948687        0.10524963115753
C           81.09555808404063        3.48784812586752        0.19215874229152
C           80.14880078477951        2.51959777334372        0.21006008210627
N           82.18754530284497        1.46166873886775        0.07444817980564
C           80.83921323372989        1.27072513703825        0.12307706614916
C           80.17810548200303        0.03976910120017        0.02646268072330
C           80.85272070572827       -1.18315260040815       -0.07844822861487
C           80.17864617407082       -2.43597956679513       -0.21852429429437
C           81.13695179172881       -3.39333940648614       -0.22117834728182
C           82.39339162037045       -2.72091250190540       -0.07100572650558
C           83.61178636545526       -3.37530545794130        0.03425693195824
C           83.62259494698768       -4.85813713965041        0.03929822981282
C           84.26640543531403       -5.56385458548248       -0.97775156877663
C           84.27187338601480       -6.95062161834457       -0.97289023115900
C           83.64194648338018       -7.64765270618478        0.04924028038989
C           83.00283759499514       -6.95219278198620        1.06665229067475
C           82.98916658809463       -5.56550617927672        1.06181132982068
C           84.82471178500552       -2.70206841803537        0.13775499998692
C           86.09145569623892       -3.35684159039540        0.29337703275849
C           87.03596205094534       -2.38689579415371        0.29246881979168
C           86.34431427798049       -1.14178968051815        0.14726843593266
N           84.99082774368156       -1.34506845691096        0.08078784684487
N           82.20227106503833       -1.36003671823912       -0.01734536798050
C           83.56932895455500        4.97501853757937       -0.02376064985621
C           83.95784992311853        5.67124101469774       -1.16846181118150
C           83.94860639365341        7.05807154236183       -1.18073437605330
C           83.55792889683606        7.76372502381436       -0.05084564274482
C           83.17346783960183        7.07705680190742        1.09277017726714
C           83.17588109925602        5.69023804892065        1.10747445008457
H           88.06589931276388        0.08423184934871        0.06251956816987
H           88.08662679953976        2.65608563636146       -0.20925823968438
H           86.18787153877207        4.57250885042594       -0.23865304363607
H           80.95768958333987        4.55634132041326        0.22135393791387
H           79.07730021585346        2.62594653257015        0.26378373766703
H           79.11023564801707       -2.55159730612263       -0.30514101221297
H           81.01513280760815       -4.45954721738870       -0.32111209284880
H           84.74937993742617       -5.02046220405175       -1.78224770432109
H           84.76976914344282       -7.48941375169348       -1.77141096431741
H           83.64940067257990       -8.73174850702175        0.05312197802436
H           82.51248233045547       -7.49212385507289        1.86908359784099
H           82.49875707574613       -5.02300116039284        1.86239486134205
H           86.22669976227975       -4.42139758175667        0.39511791304485
H           88.10613560099273       -2.48538731575630        0.38277312399599
H           84.25327858063960        5.12072193048277       -2.05465650147350
H           84.24719455400881        7.59003364682395       -2.07725510029946
H           83.55298903682728        8.84777749653892       -0.06156045359471
H           82.87020367512244        7.62380948353548        1.97875024415726
H           82.88546070896572        5.15450301032073        2.00432603349132
C           49.36749492266725        0.03668379574102        0.01792956811688
C           48.14323073374232        0.03076753446679        0.02627534843722
C           50.71308398639662        0.04052890178603        0.01492880605202
C           51.93757022485840        0.04453627405304        0.00931103295022
C           62.79101749321590        0.04787038623217        0.01805846028675
C           61.56589929693052        0.04720319534655        0.02696572281300
C           64.13539330032077        0.04562304540007        0.00999319624708
C           65.36053401242857        0.04188565124438        0.00275238479881
C           76.20787184155732        0.03064634513514        0.03183172080744
C           74.98335119491792        0.02860977162286        0.03260961794391
C           77.55343424701863        0.03268477329965        0.03098200771950
C           78.77776404994883        0.03279378562187        0.02825654447225
Fe          56.75251377560608        0.04475535816653        0.02501955816826
C           53.33682611155536        0.04419652749396        0.00960584478605
C           54.00706066071378       -1.17503418728300        0.17952999209243
C           53.33377873309307       -2.41816615797866        0.38496481441216
C           54.28933362341532       -3.37991515472392        0.38759091980082
C           55.54060732773697       -2.71745131663055        0.17434487951650
N           55.35420957324393       -1.35965375303666        0.09012948730138
C           56.75240357079797       -3.37909275767284        0.01342116220357
C           57.96383853527318       -2.71729330102423       -0.13952204363055
C           59.21611803949499       -3.37839719997285       -0.35311396297822
C           60.17157135841268       -2.41694486327975       -0.34155824532312
N           58.15082685113867       -1.35919037250017       -0.04595785092301
C           59.49734737983062       -1.17468215313892       -0.13209539640265
C           60.16777916405903        0.04582837785068        0.03192885593236
C           59.49531318059670        1.26468430110653        0.20067718709283
C           60.16717866476425        2.50565136607311        0.42429241619276
C           59.21073992987301        3.46613623433395        0.43941087993166
C           57.96049923770363        2.80622116402818        0.21041788754526
C           56.75062919188104        3.46835468118260        0.04530555170194
C           56.74725929444381        4.95011462282496        0.06194162039518
C           56.02126604502349        5.64303946100271        1.03172960448084
C           56.02303032100399        7.02953813236610        1.05009483951415
C           56.74182550881238        7.73950368284640        0.09805756796044
C           57.46265064765204        7.05710597430460       -0.87245918170865
C           57.46969174719569        5.67056944881986       -0.89014555095105
C           55.54166372901332        2.80598304247743       -0.13478795692214
C           54.29293461317206        3.46727342656352       -0.36572751638242
C           53.33780924138654        2.50505349861127       -0.37311117302396
C           54.00899767082701        1.26267262653046       -0.15737979896997
N           55.35502599859639        1.44804615110061       -0.05267060178061
N           58.14906558190280        1.44876472532571        0.10942359026865
C           56.75064391792128       -4.86124465672919        0.00332542814572
C           56.05331316781265       -5.55923710104108       -0.98362218958142
C           56.05666426459847       -6.94583968694322       -0.99497528539971
C           56.74752520965379       -7.65035548833049       -0.01832784151768
C           57.43965942207984       -6.96257353029607        0.96925720123198
C           57.44603965096204       -5.57592359589611        0.97952284258516
H           52.26819767078149       -2.52682564147719        0.50741780107167
H           54.16712877205542       -4.44192762521741        0.52456353802539
H           59.33863720048310       -4.43954771389572       -0.49628273858320
H           61.23751755385302       -2.52470076433082       -0.46173485470203
H           61.23216653471449        2.61306375215707        0.55288483326067
H           59.33186938764220        4.52581685609819        0.59412145961977
H           55.46887418056555        5.08936814002014        1.78271969432486
H           55.46025199002786        7.55795824738980        1.81164366157257
H           56.74005984530617        8.82348364228187        0.11233668431934
H           58.02324703984449        7.60718366340994       -1.62014518207030
H           58.02351091047066        5.13867909765880       -1.65574344405690
H           54.17177405068304        4.52878574296391       -0.50740429581152
H           52.27389517024466        2.61260473063371       -0.51009093255363
H           55.52241377064751       -5.00953563399295       -1.75281722337015
H           55.51748767282260       -7.47859790274733       -1.77034923722279
H           56.74644097032883       -8.73440148287383       -0.02670820759165
H           57.97765278959782       -7.50846164900099        1.73636010480521
H           57.97791520190617       -5.03940688836779        1.75733432619448
Fe          70.17142429644336        0.03277636715128        0.02057671083984
C           66.75856362387731        0.03819772923425        0.00215644151242
C           67.42768956784325       -1.18622648682820        0.14201389659778
C           66.75426425436383       -2.43263632577041        0.32772256156161
C           67.70904086307820       -3.39490270866376        0.30873965583892
C           68.96001109651472       -2.73013538316787        0.09868074158636
N           68.77350115534264       -1.36989821745893        0.04377051423257
C           70.16824778248338       -3.38707435567576       -0.09771758558518
C           71.37727629613148       -2.71898995410738       -0.25562236024998
C           72.62498614024624       -3.36950036765188       -0.52060656726149
C           73.58120433013953       -2.40888446893920       -0.48349686508479
N           71.56580995244282       -1.36676124806352       -0.10959303239407
C           72.91193926779574       -1.17783804561353       -0.20518829652242
C           73.58423220554188        0.02886235008502        0.03296811261051
C           72.91279056173811        1.23577961915113        0.27301481806794
C           73.58192406220304        2.46279448843047        0.56807961707411
C           72.62704380253972        3.42472937976934        0.60737920033905
C           71.38072823046696        2.77968333063788        0.32330133134235
C           70.17602834278706        3.45234367507847        0.15085543763672
C           70.17981825614548        4.93281103210974        0.20335486903011
C           69.42317180602559        5.60879836401106        1.16169646730271
C           69.43056592269836        6.99454486748885        1.21008337718905
C           70.18644860508296        7.72108853430958        0.30013293020592
C           70.93919621913602        7.05586181196205       -0.65797389932759
C           70.94005526123982        5.67008340182361       -0.70574600704499
C           68.96965825224505        2.79921760893018       -0.06936131111703
C           67.72417392586985        3.46736463518411       -0.30031937570338
C           66.76678896424703        2.50794707979457       -0.33207940679638
C           67.43349590404067        1.25988280408273       -0.13439402541271
N           68.77834810821301        1.43955130390921       -0.01775974221684
N           71.56776079942114        1.42816181878939        0.16866401508465
C           70.16945006511301       -4.86818477922760       -0.14010680300784
C           69.43945948088179       -5.54938329119547       -1.11510531432732
C           69.44412645816692       -6.93554736730980       -1.15220345812177
C           70.16983399873457       -7.65684569228887       -0.21392908013671
C           70.89599604458596       -6.98610342154539        0.76080298065041
C           70.90048011563908       -5.59998339802304        0.79687546276227
H           65.68923974472979       -2.54254765051896        0.45405618206283
H           67.58633464104182       -4.45894327944614        0.42841068694347
H           72.74466685937645       -4.42316274062679       -0.71319566351134
H           74.64491213618940       -2.51112707603838       -0.62630050791864
H           74.64438307335968        2.56153588761398        0.72201121105436
H           72.74730099433211        4.47583415630409        0.81291173717864
H           68.84248435794255        5.04219531656034        1.88103579754572
H           68.84315214796946        7.50938875797199        1.96218310060219
H           70.18896221021521        8.80451241406173        0.33767953924140
H           71.52917462992771        7.61886147337122       -1.37265815905086
H           71.51845887529483        5.15209937271456       -1.46256720363001
H           67.60638995772538        4.53140916615678       -0.42475570117699
H           65.70428453282749        2.62085205577318       -0.47577716648943
H           68.88171254477260       -4.98684145374149       -1.85550435400324
H           68.87811710942876       -7.45479577621064       -1.91762981885660
H           70.16949137439330       -8.74054544028759       -0.24231322636119
H           71.46216225231458       -7.54500994434965        1.49766056880291
H           71.45873572290412       -5.07721784202373        1.56554797867879
