120
 energy: -214.456084065085 gnorm: 0.000501017528 xtb: 6.5.1 (b24c23e)
Fe          16.17136479702430        0.08012970225079        0.00671778875422
C           12.77266671068500        0.14431702346992        0.01200779922765
C           13.43144645403035        0.92883300769534        0.93587655693579
C           12.76465934328676        1.75943031106541        1.89291036033684
C           13.73250857986891        2.41846224643774        2.57405338608257
C           14.98399570193497        1.98968743745686        2.02641119914246
N           14.79260001067633        1.06479457433962        1.04317664665775
C           16.21801148828759        2.51444461558140        2.42039482940363
C           16.23770595945361        3.51549658512860        3.41502339361304
C           16.25873676761607        4.37456951754621        4.27201930593537
C           16.28043640177414        5.37427052184771        5.27130651155296
C           17.47933983857070        5.97660412555700        5.67032121776999
C           17.44538793252037        6.94902123549883        6.65396007944946
N           16.32188144824674        7.34512862496023        7.24664971353793
C           15.17796663697992        6.77750266440843        6.87282970011962
C           15.10304323090034        5.79740450188989        5.89928424212443
C           17.43060375900725        2.10115162567901        1.86827358251070
C           18.69490836708401        2.65541648295727        2.24005451643889
C           19.63743357442296        1.96917945416899        1.54814016338172
N           17.59261854079047        1.09887932424866        0.94969390906385
C           18.94128561332513        0.99867513022004        0.76298217567295
C           19.59083690277114        0.03786084817736       -0.02114525568430
C           18.90640214485326       -0.91709352053440       -0.78222192157996
C           19.56651546603289       -1.90993918421855       -1.57038415180220
C           18.59518591432891       -2.59640947777709       -2.22105229212632
C           17.34987353016930       -2.01533542455107       -1.82655332787228
N           17.55165221488586       -1.00189529415588       -0.92811772544616
C           16.11847114101995       -2.40685588290743       -2.35220808240516
C           16.09603885741852       -3.42642259328100       -3.32783691686517
C           16.07798044721294       -4.29945869867769       -4.17068370406483
C           16.06426461505496       -5.31451863460870       -5.15455808740516
C           17.24450182121020       -5.95575897182506       -5.54903876528491
C           17.17999911580339       -6.94121733936416       -6.51789852330358
N           16.04355723810507       -7.31469231817120       -7.10060745221048
C           14.91736137144354       -6.71011758058376       -6.73112546819450
C           14.87319721468290       -5.71398464595022       -5.77187352006853
C           14.90645428820802       -1.82912657296279       -1.96367549277095
C           13.63913499287514       -2.20836926025723       -2.51146135204376
C           12.69998654137285       -1.48930176843946       -1.85120318173151
C           13.39963374558492       -0.67643695416486       -0.90240771262891
N           14.75326096709284       -0.88155168493911       -0.99562729476611
H           11.68867221769833        0.17066314771016        0.00777702155063
H           11.69433798456082        1.81948270768603        2.01011599949247
H           13.62741255817264        3.13738911967707        3.37077520427938
H           18.41709512484474        5.68374957484687        5.21377577253929
H           18.36030636644458        7.43327203370714        6.98293168708192
H           14.28058034406186        7.12434197666525        7.37706230304003
H           14.15016201922879        5.36123281250713        5.62496354745681
H           18.82836334779731        3.46250014085969        2.94230017561606
H           20.70829538521825        2.09238237557055        1.56357979795145
H           20.63485096957311       -2.04758289377685       -1.61427380425595
H           18.69728197673790       -3.41714487769390       -2.91265063209294
H           18.19158397712528       -5.68176450598425       -5.10014083252712
H           18.07992821643021       -7.45520432178610       -6.84307178936006
H           14.00881088293723       -7.03923672416913       -7.22715099159172
H           13.93362585942164       -5.24771304465604       -5.50114260859359
H           13.50473841560675       -2.93532208231406       -3.29640392489032
H           11.62893330896377       -1.49840051878245       -1.97657646330516
Fe          29.60726831242184       -0.04618411294299       -0.06473224852347
C           33.00625279707538       -0.08322823323880       -0.10911126131958
C           32.34790778203140       -1.27842554534007       -0.31175736788464
C           33.01522488496490       -2.52593873238128       -0.53263914205918
C           32.04798167432879       -3.44816294276170       -0.75388925408545
C           30.79632063736023       -2.75797321584584       -0.67041515418430
N           30.98697914346162       -1.43978328500113       -0.37922281760752
C           29.56295132352067       -3.36526740736666       -0.92230471200673
C           29.54446589480647       -4.73268907480565       -1.27097913153858
C           29.52560938482281       -5.90971337692135       -1.56620463291731
C           29.50707577955088       -7.28150895285973       -1.90717309581803
C           28.30998084988354       -7.93689430360049       -2.21824523348569
C           28.34727734983944       -9.28132320540492       -2.54291443799544
N           29.47239712297652       -9.99092437820562       -2.57487033485099
C           30.61466935648659       -9.37508595585962       -2.28087150822784
C           30.68624477462087       -8.03509805899622       -1.94428803359844
C           28.35004914673145       -2.67975927884086       -0.85223370455849
C           27.08628556054317       -3.28377345713682       -1.13865917296669
C           26.14294291856473       -2.33899044861859       -0.90308471923725
N           28.18695797883181       -1.37759756516998       -0.46196147826684
C           26.83808110745452       -1.16716735227228       -0.47110421632087
C           26.18769281115707       -0.00204793739201       -0.04764548727827
C           26.87123046753177        1.14186348227036        0.38119030913260
C           26.21018054966466        2.32769406220575        0.82791496447320
C           27.18074424314556        3.23968117299273        1.08164343885275
C           28.42656760220322        2.60364804634739        0.78597705838365
N           28.22581940139901        1.31196845493522        0.37817886050884
C           29.65758981211634        3.25628114316963        0.85328358043108
C           29.67965270997043        4.61688125557654        1.22769797634424
C           29.69873405277508        5.78817187837419        1.54490701539201
C           29.71568802828397        7.15287176566539        1.91346713532731
C           28.53767825814415        7.82292213329212        2.26419417442892
C           28.60628372649173        9.15919307663538        2.61593448683965
N           29.74463266309321        9.84780991687415        2.63787956547206
C           30.86876624571971        9.21813049561997        2.30591446635676
C           30.90882639714540        7.88438612012124        1.94002387417454
C           30.87041907240123        2.62618079814249        0.56041776371614
C           32.13767645620033        3.29081107573637        0.60874795371673
C           33.07773459469581        2.35454872055803        0.33543554845033
C           32.37866512516665        1.12299885675722        0.12325244551861
N           31.02454870163500        1.30876671506568        0.24556361531232
H           34.09033749578910       -0.09344931736867       -0.12939175762185
H           34.08546638002387       -2.65766666581319       -0.52006427537697
H           32.15366778942358       -4.50061415733892       -0.96326203651567
H           27.37099710111439       -7.39682133786544       -2.20409812834527
H           27.43375960492028       -9.81522720520234       -2.78835795486029
H           31.51343321449933       -9.98400377397414       -2.31641600726498
H           31.63786448807831       -7.57279570757514       -1.71151221106897
H           26.95378837984274       -4.30023497485018       -1.47273722433259
H           25.07213093266402       -2.41612333975648       -1.00103389607009
H           25.14178573802839        2.43509515450276        0.92389574949363
H           27.07781886304449        4.25475470302507        1.43002306526019
H           27.58912823000389        7.29969375707636        2.25925891615256
H           27.70814546296004        9.70390836469313        2.89238731024672
H           31.77897124496372        9.81019080932370        2.33420327563397
H           31.84680145650215        7.41068583744758        1.67672913900851
H           32.27145098930523        4.33782030121701        0.82904396763229
H           34.14903590516241        2.46652600464990        0.28313187311327
C           22.21581126060095        0.02918993742158       -0.04199997851993
C           20.99237399157688        0.02778346819797       -0.03741356238127
C           23.56258387016579        0.02033127208735       -0.04668679934890
C           24.78610526074744        0.01585984739401       -0.04666686473815
