260
 energy: -529.788772042898 gnorm: 0.000779418114 xtb: 6.5.1 (b24c23e)
Co          55.11290836134901        0.50509475969363        0.06803211084988
C           52.05361218587748        1.83749756888385        0.24774850828602
C           52.56371640355574        1.23789939217781        1.38293534399354
C           51.83131541878349        1.06427928870561        2.60010651900043
C           52.63416879093604        0.37188862645515        3.44318742086478
C           53.88590774843719        0.18943068066944        2.76682991505094
N           53.80599374577837        0.66990671899984        1.48442454328618
C           55.05867728387664       -0.24154013694713        3.37429627957532
C           55.04201726848439       -0.67609109182019        4.78926638638111
C           54.62484264052859        0.18868160226532        5.80382008042220
C           54.61629487878405       -0.23033475576682        7.12423977258029
C           55.02657785891525       -1.52088841341393        7.41574615084140
S           55.02127910145329       -2.05534052215623        9.08594225920567
O           55.06136689983323       -0.93123612517552        9.97289415380540
O           53.52840054823123       -2.69290597964649        9.12552415263372
O           55.95795841627447       -3.12180688780429        9.28746978180577
C           55.45770544465681       -2.39713965851519        6.43287734824513
C           55.46739967231261       -1.96625150505678        5.11675329899839
C           56.28269151565354       -0.17591993211677        2.71926768794629
C           57.55238659384799       -0.27540348321280        3.37335229929725
C           58.49875362101416       -0.06345997346826        2.42610851819932
N           56.45569392959325        0.07668276124375        1.38183808255124
C           57.80822231661310        0.10846937229585        1.18625180073056
C           58.43767148889985        0.05561440333923       -0.06144302268227
C           57.69901394831766       -0.09257341378965       -1.24248722098840
C           58.25892938066055       -0.50627620252285       -2.48930115200999
C           57.23690985471810       -0.56488448885375       -3.37805481509772
C           56.06582226189276       -0.11223308340847       -2.68821558692892
N           56.35542642629876        0.10636325649515       -1.35945032088413
C           54.87432783887978        0.24066362991064       -3.30372381240655
C           54.70929749950641        0.04823518831845       -4.76210460740506
C           53.66384231210495       -0.74696875278027       -5.23879618045739
C           53.48736325984712       -0.93477224710501       -6.59951876912679
C           54.36198419121458       -0.31211230614520       -7.47534434414090
S           54.13425340809011       -0.53049654563587       -9.20043431493718
O           54.73500196147461        0.54896524465803       -9.92522006845746
O           55.04817678970024       -1.85848568836767       -9.39616572802515
O           52.77816655560365       -0.88754207203443       -9.49861563874751
C           55.39817611654056        0.49404576102856       -7.03345539972485
C           55.56930945772805        0.67043787896187       -5.67012589107412
C           53.85340943738427        0.87751417215827       -2.60347513030245
C           52.74316664885831        1.54357413149702       -3.21961420596319
C           52.00866987519619        2.08882898517884       -2.22088636922368
C           52.64244946859436        1.71280588445997       -0.99274500974265
N           53.79584063490685        1.01110670419698       -1.24457410909261
H           51.09197658794664        2.33245273974763        0.31445935747552
H           50.82155088223356        1.40690704866230        2.76038212922140
H           52.41433485562284        0.02844916683429        4.44087045486913
H           54.32700418790283        1.20127830584832        5.55848770873940
H           54.30346453491438        0.43406223236337        7.91990527112524
H           53.40302618230818       -3.19911837307481        9.93747153665299
H           55.78349106629933       -3.39517364709550        6.69780621037257
H           55.79548400681495       -2.63624564690035        4.33058572611677
H           57.68978767824331       -0.45441078268745        4.42737637882392
H           59.57102411620573       -0.06274373719532        2.53705994998660
H           59.29761968506863       -0.74859732766731       -2.64468116252891
H           57.27007865945943       -0.86551984833426       -4.41242741999157
H           52.99402272432213       -1.22731061267356       -4.53513731430914
H           52.68081157256417       -1.54884620526709       -6.98001292451077
H           54.88581067959811       -2.24903128097693      -10.26355612037758
H           56.05189350542682        0.98011809504634       -7.74670924620735
H           56.36128682423083        1.31404562797560       -5.30563835206202
H           52.57436491376747        1.60090442184689       -4.28279385705426
H           51.10099711302559        2.66682063766051       -2.28888021833978
Co          87.41627095450411        0.14072886768101        0.01754352936125
C           90.76073117106257        0.50116845330074        0.12525183040331
C           90.11958410518088        0.69173598530685       -1.08126084505408
C           90.78591147408498        0.97683954510893       -2.31549976241035
C           89.82064270009668        1.24616026474169       -3.22610701877870
C           88.56554505717264        1.15931350441225       -2.53707587896982
N           88.75870335002314        0.74241635324677       -1.24452842200636
C           87.35173271195316        1.59721000972884       -3.05056436966584
C           87.30637839449831        2.19164093734026       -4.40482949271790
C           88.07765005167268        3.31402573787750       -4.71718024835828
C           88.03033412144065        3.86841102830497       -5.98569168063525
C           87.20907827301016        3.28498935511126       -6.93676399754570
S           87.13887264250606        3.98643579165545       -8.54222930495173
O           87.52653565846670        5.36547562406830       -8.50860236966415
O           88.34011299649207        3.13246493269994       -9.22443404617281
O           85.91559680834949        3.63420905719750       -9.20161569351314
C           86.42893620516955        2.17500768998914       -6.65594250913331
C           86.47942995598970        1.63232753272682       -5.38284176840139
C           86.17609190660754        1.51917539322098       -2.31565462699959
C           84.92593527493636        2.08780158600326       -2.72120192766298
C           83.99921377247080        1.67620631582405       -1.82213931630936
N           86.02353498041840        0.81616550931890       -1.14513875525884
C           84.68233385013951        0.85025032597869       -0.87679318817314
C           84.03559230546136        0.01477920372386        0.03640447855843
C           84.74953024372336       -0.82540865951771        0.89516727854114
C           84.14454308415644       -1.78095555045842        1.76782717325366
C           85.12621028601976       -2.24712753989667        2.57752386990312
C           86.32488016342319       -1.55227758868430        2.21378700840115
N           86.09352221924965       -0.74030079297150        1.12725402170086
C           87.50006084033281       -1.57116606442201        2.95082176057806
C           87.54501670269430       -2.32939225239331        4.22073882501547
C           88.48858904923974       -3.34398757387739        4.40167581193338
C           88.53624468432217       -4.05625368251656        5.58863653151883
C           87.63529219128708       -3.73802683090953        6.59185537680577
S           87.69691288282529       -4.62610611694253        8.10261229511878
O           87.13617670971550       -3.84683502746708        9.16618009454131
O           86.65211905386069       -5.81029606467327        7.72357914158553
O           88.98562428466926       -5.22422918128919        8.29574754469237
C           86.69468498955443       -2.73140120327696        6.44588646034961
C           86.65166527315289       -2.02972067364444        5.25260590190955
C           88.63027604863910       -0.87074838167435        2.54578115182245
C           89.83482957887313       -0.75426005224893        3.31529519066759
C           90.74800126491166       -0.14392661671956        2.52366013178618
C           90.10231906024470        0.10878697122783        1.27086846271639
N           88.78567325539194       -0.27819748490340        1.32070277105974
H           91.83508518680503        0.63515053283880        0.16663511082895
H           91.85580604477566        0.96497230837164       -2.44916502228055
H           89.93556815743968        1.49249668129873       -4.26917369247731
H           88.70199453241760        3.76502967416485       -3.95482464191487
H           88.61537176834851        4.74454873870629       -6.23563531398717
H           88.39889516584172        3.33158536689320      -10.16680434526583
H           85.79202307331568        1.74926782226496       -7.42110034403242
H           85.88412257580664        0.75867227826897       -5.14426275076438
H           84.78763913141205        2.72328068650872       -3.58072910117741
H           82.94203523358780        1.88627380143258       -1.80170310265373
H           83.10049791932961       -2.04901364805459        1.75409198173279
H           85.05357978395237       -2.98711650156930        3.35775800066370
H           89.17819280281088       -3.58310813833467        3.60057212513706
H           89.26308829887313       -4.84451219115594        5.73945213160008
H           86.68419455586648       -6.50921062103035        8.38821142049538
H           86.01484589071291       -2.49994929796925        7.25618171838929
H           85.93299739831593       -1.22887888434677        5.12350138128548
H           89.95186916900542       -1.09709931532539        4.33054777228969
H           91.77376226660290        0.10518549290538        2.74356278730968
C           59.84047235196643        0.03796439174058       -0.12055723765859
C           61.05754752724310        0.06201342209892       -0.16203295492331
C           70.62651971709349        0.04185395645924       -0.07800944897236
C           71.84325779100051        0.01330067778276       -0.00594010502501
C           81.41293361781823       -0.00834008366180        0.10367043898067
C           82.62958426860448       -0.00491968396385        0.07102785968561
Co          65.84261598039299        0.13181759160758       -0.22639281602601
C           62.46064287029779        0.09415077422858       -0.19590669264689
C           63.15049419178582        0.75639994962388        0.82562186575978
C           62.52001707577506        1.41849112131582        1.92337927855075
C           63.46796364269620        2.19197377392721        2.50896854095816
C           64.67456965329558        1.99927919897819        1.76361213435945
N           64.48236763455219        1.06004950062140        0.78039224471572
C           65.83305830499962        2.75338892613438        1.91300426218965
C           65.82108978044164        3.90551720190348        2.83985011136594
C           66.73475967877614        3.97220934005435        3.89521371128660
C           66.72204596097042        5.04661794882367        4.76899983052849
C           65.79010536289621        6.05281933393580        4.57282968354216
S           65.77754373948324        7.42183782958814        5.66902264997583
O           65.15367623359300        8.55360272058677        5.05146787357768
O           64.76681045798992        6.81910471521796        6.78703789621682
O           67.05984700560784        7.59649662837927        6.28576608080764
C           64.87601902814713        6.01822117600216        3.53244514448986
C           64.89329868417860        4.93630608280861        2.66789236929351
C           67.00239539881063        2.44216050832952        1.23205598549940
C           68.22362982015299        3.18450414098766        1.31674924185249
C           69.18585502767381        2.41571619054522        0.74883659823847
N           67.20293884109036        1.27691533883843        0.52853139916337
C           68.54785926491937        1.21836577514324        0.30366951621961
C           69.22638833905449        0.07833060237806       -0.14818574119790
C           68.53062664438670       -1.01258579377859       -0.68360501719471
C           69.15135385864281       -2.20171507584686       -1.17361688308883
C           68.20416436634532       -2.88041430898860       -1.86760826498829
C           67.00508146716562       -2.10233025997860       -1.79497620219523
N           67.20210002131888       -0.99703965936914       -1.00278030583943
C           65.84975571178465       -2.34983903155629       -2.52628651035614
C           65.85897350561554       -3.43195496698088       -3.53415191729862
C           66.79173402149132       -3.41471716880349       -4.57471024084172
C           66.80521487193107       -4.42355659889939       -5.52342098905399
C           65.88113428990467       -5.45026599457185       -5.41598665041590
S           65.90269056040619       -6.73835406349911       -6.60601411727717
O           65.28544952954009       -7.91870600352335       -6.07942822733155
O           64.90008368799445       -6.07133725356692       -7.69494971689031
O           67.19584332074901       -6.85308742666535       -7.21416245467048
C           64.95048577185698       -5.49996558122635       -4.39103590257926
C           64.94148696876327       -4.48272878759852       -3.45109897505697
C           64.68306187476146       -1.62369039580241       -2.32238286552434
C           63.46398482373543       -1.81009100869547       -3.04959584931344
C           62.50253192557552       -1.12921117356084       -2.37779035118799
C           63.13985542060662       -0.51304573309251       -1.25828649386289
N           64.48366627831925       -0.75684605675339       -1.27401867204505
H           61.48078360820878        1.31292136395124        2.18951090216095
H           63.36783709984988        2.83707081581128        3.36660251450096
H           67.44646736078535        3.16780266206711        4.03971016215398
H           67.42521196907978        5.10826512400754        5.59007477169557
H           64.76446892061792        7.37822235157920        7.57360648005446
H           64.16904591429243        6.82782535048545        3.40180779493607
H           64.19491359070528        4.89569486606465        1.84019215242055
H           68.32395739905012        4.16253177298633        1.75835533890867
H           70.23529712207348        2.63099681671055        0.63345487418305
H           70.18345070971836       -2.46604752513850       -1.01259873251800
H           68.29914917225837       -3.82310052426611       -2.38144344738184
H           67.49889662125031       -2.59663736415722       -4.64654519867433
H           67.52313607553127       -4.41990058005404       -6.33396015336574
H           64.92253470776252       -6.57125447448377       -8.52010767224215
H           64.25166775305173       -6.32473231143222       -4.32966892900389
H           64.23122407981401       -4.51073452990261       -2.63304692994731
H           63.36393946754980       -2.39317289696405       -3.95050559045985
H           61.45223665286256       -1.04958654735541       -2.60621173937625
Co          76.62676334275415       -0.01773240461359        0.16589588303349
C           73.24325410463300       -0.00774732949958        0.07284685840441
C           73.91702030105171        1.10345794302482        0.59731208556317
C           73.27328723350439        2.24520677390094        1.16403433004896
C           74.23252333918694        3.18663652263210        1.34435174723419
C           75.45791456512569        2.62068603031560        0.86666754471976
N           75.26240983193490        1.30983502456500        0.49561512541250
C           76.62593687755115        3.33408931586028        0.63546000548136
C           76.63421185895355        4.79679455403185        0.85237227126541
C           77.55949979028409        5.37102300599746        1.72818054935858
C           77.57206813558332        6.73979001170984        1.93909278758072
C           76.65436046725155        7.52565129193425        1.26132043633885
S           76.67343055003197        9.26121430160322        1.51351861429775
O           76.11263413562544        9.94701213802300        0.38702422348699
O           75.60179509753105        9.33050761701908        2.73012995939307
O           77.94953767133464        9.68549249943025        2.00765792534959
C           75.73114951157821        6.98690102510656        0.38001928629611
C           75.72314946957390        5.61634302818143        0.18066498206850
C           77.78764742055287        2.71367686655414        0.18836473058381
C           78.99327822091176        3.39316234895954       -0.17657881921224
C           79.94438367817554        2.43985405751517       -0.33946529790761
N           77.98334453996449        1.35506905530715        0.17483327212263
C           79.31674200443720        1.18403058276140       -0.07537557178904
C           80.00784540569468       -0.01179932467280        0.14222418271159
C           79.33228664643036       -1.20481145612974        0.41910086210187
C           79.97444794164862       -2.44291800339868        0.72674389684941
C           79.01639926179438       -3.40172085929380        0.68269161452606
C           77.79490540612279       -2.74589173806998        0.32527913250478
N           77.98853107987142       -1.38700012177636        0.25038916179533
C           76.63063753056345       -3.39412135377991       -0.06828310928301
C           76.62450332086020       -4.86900060498041       -0.17642394363257
C           77.54195725488597       -5.52123604701018       -1.00439638814699
C           77.53212958907035       -6.90191819272972       -1.11350716636735
C           76.59922401469916       -7.62033220972522       -0.38358386818113
S           76.58901069742937       -9.36951336089143       -0.50846090446396
O           75.97969430018723       -9.95767624876625        0.64742975444712
O           75.55700123607375       -9.50632405381587       -1.75365095744750
O           77.86888648627209       -9.85683892170152       -0.93032492209163
C           75.68103654796242       -7.00281171705173        0.45002196712874
C           75.69544521722504       -5.62136466077156        0.54729530233683
C           75.47328893704479       -2.69470153716864       -0.38673056734777
C           74.27711561231062       -3.28259780733630       -0.90841786958575
C           73.32724101346128       -2.31475109156648       -0.88968280875877
C           73.94327184887460       -1.14286463833318       -0.35438780266322
N           75.27113962840681       -1.36212854537618       -0.11942383344656
H           72.22216218412929        2.30592710746790        1.39304897914709
H           74.12771345194399        4.17694407832052        1.75653450238798
H           78.26125548636669        4.73680651915817        2.25712819462765
H           78.28399592759716        7.19529978421981        2.61585787472089
H           75.41351209655751       10.24824586713087        2.96191705971894
H           75.03738716753426        7.63248059803299       -0.14373673707810
H           75.01907679999934        5.17661851406372       -0.51605064995185
H           79.09040026479219        4.46045179366869       -0.29122679845813
H           80.98401144496943        2.56455993708950       -0.59585555666354
H           81.02576258930009       -2.55275122714470        0.93806437451656
H           79.12013978443386       -4.45882737485793        0.86530538348605
H           78.25412437747973       -4.93978230210201       -1.57814056243166
H           78.23786563360348       -7.41770845225397       -1.75246870898017
H           75.42541990838282      -10.43476515422258       -1.98175054708946
H           74.97319100186957       -7.59639949950212        1.01479100925034
H           74.99357261511572       -5.11877912033059        1.20248880079876
H           74.18578966522053       -4.30205798083395       -1.24613848594573
H           72.29630529978685       -2.38053091724185       -1.19608986827518
