189
 energy: -316.796796053388 gnorm: 0.000484357607 xtb: 6.5.1 (b24c23e)
Zn          22.70524353584095        0.32080950947718        0.16853834298055
C           19.30573160062535        0.12457099298013       -0.01181870254189
C           19.99717186944407       -1.08100148255761       -0.03299753173281
C           19.38800099007384       -2.37983353811517       -0.09462567290743
C           20.39369589009876       -3.29050068427697       -0.09283172096355
C           21.63136214273202       -2.55843203381070       -0.04119345117667
N           21.35467412031842       -1.22281197953026        0.00371066267445
C           22.91173988372807       -3.12510364865913       -0.01756181309491
C           23.00609653240688       -4.60414952454856       -0.10440929349720
C           22.56951905496082       -5.27682403600232       -1.17944557320691
C           22.64028921842231       -6.77866483117634       -1.27833129145306
N           23.56494252266939       -7.33229587475946       -0.28525136578919
C           23.82697603210271       -6.65247564208055        0.87657857425496
C           23.60845174248433       -5.33195246907394        1.00388768569425
C           24.11334972772762       -2.41547733973234        0.08157159633492
C           25.42511127348740       -3.00119969350502        0.06509866726723
C           26.31942856658952       -1.98491067560543        0.16515457613995
N           24.23660711353929       -1.05480041000614        0.18079757494290
C           25.56461392146690       -0.76829439294600        0.23630957873039
C           26.12872062908692        0.51888644835068        0.34603545711319
C           25.41220441826759        1.73173277769945        0.39170169366284
C           26.01063211345450        3.02646286188439        0.53423431915669
C           24.99975512626755        3.93247007680451        0.53621711052066
C           23.77289054275113        3.19990702630621        0.38704379475394
N           24.06138003574162        1.86311802667391        0.30865176761045
C           22.49402205439000        3.76615052077003        0.35573140515424
C           22.40823046141672        5.24560671653474        0.44539209477288
C           21.78992660096742        5.85466813036872        1.46789937957969
C           21.67801568339206        7.35383328670520        1.56922455347206
N           22.62755712935390        8.01766494610104        0.67200041489979
C           23.08338809452791        7.38235588793965       -0.45418489209806
C           23.03255323161511        6.04643464077729       -0.59835828369405
C           21.29183276284611        3.05633473165499        0.24723720955366
C           19.97992995851361        3.64141818435043        0.16382954307757
C           19.09074281267828        2.62149652942808        0.06442896885671
C           19.84788960730755        1.40146144448772        0.07491926293557
N           21.17642221424201        1.69815357629144        0.18090759029391
H           18.22329413504488        0.06190293947447       -0.06921917248173
H           18.32475529204165       -2.56052269491756       -0.12619546389914
H           20.30947445946273       -4.36529426989822       -0.11312132819236
H           22.12588826113846       -4.77004748955023       -2.02860283489432
H           22.99507484444158       -7.07613134299765       -2.27437024344652
H           21.63358734285699       -7.21802926395576       -1.14591673028736
H           23.52931430714346       -8.33892775074295       -0.21315371865938
H           24.30194711617058       -7.24476991210972        1.65224560379733
H           23.86873016196437       -4.80222881734468        1.90931898957706
H           25.63309697932711       -4.05569112554240       -0.01998121859160
H           27.39605614225399       -2.04514895450594        0.18391210096206
H           27.06935103319057        3.21005322477047        0.62670802881329
H           25.07498159775248        5.00330482616567        0.63675564266242
H           21.32326817788896        5.29301255637382        2.26881543720088
H           21.89547147836044        7.68110656120779        2.59498187607773
H           20.64589745993013        7.67668353066573        1.33571432659076
H           22.48795737037947        9.01480564264092        0.59607506012180
H           23.56320969629120        8.03172960664257       -1.17956308469775
H           23.44276747075384        5.55747775675113       -1.47057873855002
H           19.77143858593183        4.69934400199173        0.16911233295251
H           18.01645052283885        2.67906276815643       -0.01755602387992
Zn          59.89072642539678        0.23286216308124        0.16405962719017
C           63.29703096931516        0.32835398959233        0.06154593530597
C           62.65136066235127        1.53939166012895        0.28160960564797
C           63.30886227772989        2.79774739794520        0.49643898098701
C           62.33743367830643        3.72748224935294        0.67730294822312
C           61.07299019328605        3.05043321109764        0.56251841111244
N           61.29957984886911        1.72440314055717        0.33280377948622
C           59.81366406442877        3.65035639530300        0.68590305249619
C           59.77386572698065        5.11747478550232        0.91034081342477
C           60.25740577669725        5.98320839471290        0.00727463443223
C           60.24209118011505        7.47391495089380        0.22659778301277
N           59.31130438885484        7.84186086713763        1.29695495885663
C           59.00148335415012        6.94508934226111        2.28713748619833
C           59.17311887125168        5.61986309259973        2.13824459760561
C           58.58561556934347        2.98385069758822        0.61554916385972
C           57.29666721895290        3.61320069056803        0.69563006896342
C           56.36410771098117        2.63499659367749        0.56899520217366
N           58.41098611090234        1.63757997146354        0.43166041164379
C           57.07249181095018        1.39960062658914        0.40442620736614
C           56.45957764096620        0.13951445717536        0.24955865553981
C           57.13027231712579       -1.08649978776161        0.06712803170723
C           56.48248947717527       -2.35926809383391       -0.05637320462143
C           57.45956200923563       -3.28713600108840       -0.22130288900107
C           58.71506953973524       -2.58865802097040       -0.20803559601910
N           58.47688067287302       -1.25245217237468       -0.02326345853410
C           59.97304748185218       -3.18717707243407       -0.33803818713862
C           60.00349484324443       -4.65700703812341       -0.54536416958490
C           60.58437338624604       -5.48263861943219        0.33761304252630
C           60.63929370494557       -6.97503034171973        0.13679099318179
N           59.68200737689116       -7.40905132661475       -0.88451269104897
C           59.26599412566089       -6.54243186259724       -1.86233392963127
C           59.36574762167000       -5.20785115521592       -1.73313627024209
C           61.20169111695093       -2.51672700326175       -0.29159534945931
C           62.49293577754774       -3.12338878102155       -0.47870426282454
C           63.41971533309865       -2.13904333896033       -0.36504486381417
C           62.70699380682985       -0.91742540323692       -0.11704092208647
N           61.36706010031318       -1.17791012642442       -0.08430874127008
H           64.38186284067031        0.35832272379576        0.02759902008932
H           64.37839747263553        2.93894255276258        0.51384203496079
H           62.46160109593077        4.77897133246353        0.88143114240958
H           60.70099980610023        5.64909386530089       -0.92344765731756
H           59.92419377436116        7.98825492262909       -0.69030490350166
H           61.25970961875105        7.83525920570901        0.46747690312747
H           59.37590992076061        8.80978746006507        1.57736397845179
H           58.52946934853825        7.37967511024792        3.16260181757193
H           58.87561253927255        4.92315989228112        2.90911902508153
H           57.12935926324553        4.67048187106906        0.82460139583786
H           55.29026631540658        2.73403756855724        0.57975813228290
H           55.41609910354364       -2.51528403209059       -0.01553204703540
H           57.34338354382661       -4.35293881921944       -0.33555677129358
H           61.06040606436697       -5.11240513202578        1.23818032193427
H           60.39241914074397       -7.49202464019511        1.07403927757999
H           61.66277001215004       -7.28492904297511       -0.14670132053288
H           59.79295774820245       -8.37353208550783       -1.16234070063387
H           58.77460454958129       -7.01346391464965       -2.70776490590927
H           58.98580416875702       -4.53842950432396       -2.49185469327443
H           62.66329829391741       -4.16842521188210       -0.68264083548325
H           64.49243196919213       -2.22016540293906       -0.44769869896609
C           27.53005761234109        0.59875483867109        0.41258571612451
C           28.75175654541837        0.66582827325985        0.46490585578309
C           30.09210310696346        0.72823464220230        0.51520155826685
C           31.32122386823352        0.77678022259406        0.55543124075519
C           32.65823676664096        0.81481137201774        0.59017266927662
C           33.88849032913207        0.83769400895747        0.61513074279665
C           35.23087422612897        0.84529268538546        0.63554171132823
C           36.45565099725894        0.83696770656872        0.64745090933682
C           46.12921737537577        0.35822439946627        0.51359599689559
C           47.35139157084796        0.28400181074541        0.48110400428537
C           48.69186146387253        0.21373979065683        0.44627188708094
C           49.92089147511619        0.15842068854572        0.41293299391478
C           51.25805826931156        0.11808843175792        0.37773561323973
C           52.48819383266500        0.09730891197746        0.34627303341252
C           53.83071748950054        0.09507890288953        0.31271179957774
C           55.05493223596820        0.10677081926653        0.28267238247746
Zn          41.29492176069175        0.65144855452910        0.61890232424909
C           37.85978783351480        0.80317143590336        0.65153331854078
C           38.52549702588255        1.52898921650606       -0.35740108111616
C           37.87329060034635        2.34065174497610       -1.34178252038816
C           38.84616316173544        2.86870512517945       -2.12826310873585
C           40.10184734953634        2.37296299259932       -1.63860170826991
N           39.87009216488671        1.56936708876692       -0.55367104200950
C           41.35666746698805        2.67270461168194       -2.17836875051357
C           41.39331023028532        3.54740312717278       -3.37782374373671
C           40.84009431357583        3.17349192929648       -4.54098662800682
C           40.91505339548995        4.02447992014278       -5.78162647405167
N           41.27660599177443        5.40626546094853       -5.45455046716351
C           41.98089463923568        5.69304198570058       -4.31415649973468
C           42.04804221907801        4.84348338696909       -3.27396612077575
C           42.58712000621600        2.21866746783990       -1.69106166087150
C           43.86371166151648        2.48625185614746       -2.29120754252652
C           44.80122105456801        1.86024798904482       -1.53398236881174
N           42.77084080492749        1.42765685519581       -0.58847068855408
C           44.10621839939364        1.20112613981339       -0.46822644980994
C           44.72755608166240        0.44534601364268        0.54682004996557
C           44.06493796059166       -0.22349054747722        1.59622280394653
C           44.72309450110760       -0.94289828661377        2.64589396669229
C           43.75265112449436       -1.43456555526792        3.45864786631066
C           42.49084925916677       -1.03038494986209        2.90470002614093
N           42.71877910340656       -0.28584746684134        1.77778256241100
C           41.23528142604297       -1.33724358096226        3.44057872239626
C           41.20187373099868       -2.18677817287126        4.65780198076043
C           41.66525651093924       -3.44535249385323        4.65424624013189
C           41.65556975123283       -4.31444704517894        5.88498044417992
N           40.75472109505231       -3.77535780093922        6.90769227052626
C           40.46432338322181       -2.43596033621312        6.94379285881733
C           40.62868168460076       -1.63393949910152        5.87706368321322
C           40.00284706625121       -0.91517615933082        2.92975614852533
C           38.71892565334267       -1.28478493264326        3.45591596213290
C           37.78000787161128       -0.69426478906165        2.67289294339984
C           38.48061826438236        0.03873672381866        1.66020314054433
N           39.82054368007051       -0.11387803029179        1.83423257884193
H           36.80740874886607        2.49009378854156       -1.41013780083901
H           38.72754534820574        3.54139565195287       -2.96233093147237
H           40.37235009120189        2.20362421278580       -4.66435982056050
H           41.64689605031753        3.59865528736947       -6.49380048680398
H           39.94087006608165        4.03959788141582       -6.28894474750060
H           41.48297533006368        5.97647575925163       -6.26197743312016
H           42.40699844413565        6.69081353931980       -4.28295599189279
H           42.54318592512979        5.11837134184619       -2.35344859029423
H           44.01983784910499        3.07004044202489       -3.18429065424824
H           45.86940469191492        1.83845424482071       -1.68094139723289
H           45.79180031193342       -1.04632785491554        2.74735579985078
H           43.87933080177490       -2.01091664979624        4.36083718643496
H           42.08804429077863       -3.89558943963798        3.76359308440571
H           42.67940716007116       -4.40900794908871        6.29316040074418
H           41.31301240085865       -5.32667818159849        5.63107737939328
H           40.82942952438633       -4.23937522070442        7.80145160097063
H           40.01354012851306       -2.09318697552791        7.86980015388524
H           40.34592173619168       -0.59122008802614        5.90696758434233
H           38.55811355349717       -1.92209234106727        4.31052848698295
H           36.70685774251850       -0.74805003741485        2.76505858147353
