242
 energy: -441.036526884711 gnorm: 0.000370699702 xtb: 6.5.1 (b24c23e)
Ni          50.68625917416909        0.04076108900699        0.03331350128656
C           47.29554102359887        0.05277890053905        0.15077927558491
C           47.95007609399119        1.26503697717028        0.21816699856661
C           47.27696518978619        2.52538084774265        0.29792298443951
C           48.23673762753153        3.46998151658685        0.43362968330451
C           49.49518953722874        2.78298550427714        0.45336594369078
N           49.31073033913295        1.43416721799237        0.28110425452302
C           50.71635184387475        3.40671289777995        0.67495280941308
C           50.73328241703057        4.86352295701775        0.94548095088253
C           50.08463153781003        5.38384485983186        2.06754121920984
C           50.10285746614358        6.74314008892613        2.32404276422056
C           50.76857495224818        7.61158183324506        1.45392838605268
C           50.78641796526693        9.01136921666208        1.71294845093702
N           50.80038810142464       10.14270637494867        1.92281055140895
C           51.41696104497636        7.09565494883547        0.32787816871470
C           51.40044816878661        5.73458350159463        0.08127755199357
C           51.92322197979209        2.71987927783925        0.66236434595304
C           53.18594078945927        3.32423311877916        0.96196929306086
C           54.13000506807310        2.37104275585999        0.77417687254126
N           52.09011249000232        1.39421224735170        0.33225134192524
C           53.44193013986266        1.18772086779207        0.36642352911491
C           54.09839210215349        0.01637067932313       -0.02075049006820
C           53.41358517662223       -1.14056916245518       -0.40209652321643
C           54.07108609612125       -2.32472357857308       -0.85493452046274
C           53.10642025989161       -3.25698023622602       -1.04340632134184
C           51.86267115716324       -2.64172961580011       -0.69089079433835
N           52.06011150680810       -1.32659207675507       -0.33555503059448
C           50.64741225429521       -3.31339787381727       -0.66684286820515
C           50.63060500645651       -4.76345266867281       -0.97036654191739
C           49.90651315572903       -5.25135192480606       -2.06049978904678
C           49.88926593152974       -6.60498144718105       -2.34545053907758
C           50.59513664481359       -7.50055702205890       -1.53660418676070
C           50.57643607048147       -8.89475454815796       -1.82409682652269
N           50.55914996927306      -10.02174091011326       -2.05578994348026
C           51.31933962285891       -7.01729393734919       -0.44278066696691
C           51.33694154164818       -5.66184521348392       -0.16725973310396
C           49.44761541276530       -2.68361308160959       -0.36010318505694
C           48.18824279368079       -3.36271352580628       -0.26569194532800
C           47.24919880293373       -2.41639604674454       -0.03242386088710
C           47.93592226528545       -1.16212718657797        0.02387632773255
N           49.28701268469674       -1.33822526213553       -0.14410163909481
H           46.21265588627147        0.05562504294895        0.19285132020467
H           46.20696624474102        2.65063084446438        0.25141925519264
H           48.11697359195696        4.53829208226621        0.51211942082317
H           49.57708060212075        4.71193412298799        2.75042900107270
H           49.60299132030629        7.13933665850815        3.20017293711316
H           51.93112721662545        7.76651872032952       -0.35037193962171
H           51.89595724899119        5.33845205578594       -0.79790408290206
H           53.32144704757953        4.34458758106162        1.28135383846926
H           55.19856502446413        2.44762389744611        0.89431693591949
H           55.13466134607134       -2.41497590605029       -1.00593684643727
H           53.21693245315380       -4.27026076843325       -1.39340274321952
H           49.36688017329728       -4.55857129020280       -2.69630682693594
H           49.32994494606118       -6.97590887246096       -3.19632805023558
H           51.86486621114165       -7.70902882868855        0.18835720839090
H           51.88982793771223       -5.29174890626435        0.68873652225794
H           48.05411803955552       -4.42785758922843       -0.36183343841182
H           46.18477394175427       -2.53622302954404        0.09159398813231
Ni          90.99198998858628        0.00888971091085        0.06059496851373
C           94.38419384099474        0.00210963439480        0.17162933672115
C           93.72948687971147       -1.20323799362111        0.31494187578122
C           94.40419515636776       -2.45546557995182        0.47192138298598
C           93.44508837139225       -3.39278033392123        0.65347593523030
C           92.18523439860707       -2.70854801349918        0.62349363262430
N           92.36868204377565       -1.37061335841762        0.37974022739467
C           90.96307815990964       -3.32530137361118        0.85748274141518
C           90.94698359369002       -4.76795795870257        1.19611801897707
C           91.57832147223191       -5.23162297698039        2.35237725498056
C           91.56076422556613       -6.57729645882148        2.67276305455339
C           90.91278645125485       -7.48893983464653        1.83401801490745
C           90.89517827808675       -8.87476125835961        2.15951967096651
N           90.88086128504786       -9.99459953397806        2.42391281859882
C           90.28179594921811       -7.02987158453943        0.67401240093288
C           90.29789733715587       -5.68199453941264        0.36316460841953
C           89.75432313105787       -2.64439949007589        0.79686401741820
C           88.49011513920594       -3.24154015543561        1.10543422717259
C           87.54584841894732       -2.29787653096656        0.87715500426493
N           89.58780125219559       -1.33243763339901        0.41666965729958
C           88.23501755911481       -1.12703797801743        0.43586571180408
C           87.57880329799812        0.03423009938605        0.02277785761662
C           88.26060165018073        1.17951095299111       -0.39361857769540
C           87.59909387428773        2.34844170832677       -0.87968107038828
C           88.56369597920165        3.26682418529424       -1.12562384481495
C           89.81169579773052        2.65993262325038       -0.77296757171173
N           89.61606817981482        1.36259775697293       -0.35717920770652
C           91.03043725567906        3.32434041307187       -0.81042599643093
C           91.04936953024043        4.75455199549478       -1.19777911877464
C           91.74569178671798        5.16942444359498       -2.33519151060057
C           91.76476780668587        6.50318938087425       -2.70178190087918
C           91.08896345019151        7.45206361259389       -1.92885121599707
C           91.10990480269963        8.82612482339007       -2.30065029146411
N           91.12606174126762        9.93691889161173       -2.60062788976655
C           90.39335120563582        7.04210407069636       -0.78757600111315
C           90.37357213508000        5.70581577153849       -0.43029721830227
C           92.23295977672241        2.70636328374624       -0.49179127572398
C           93.49518058485455        3.38587266562589       -0.45477611285783
C           94.43413925453976        2.45314725963210       -0.17242897169841
C           93.74477848190364        1.20701337907810       -0.03099188475120
N           92.39259813061334        1.37579725004365       -0.19755316000044
H           95.46716104232883        0.00101937924073        0.21170398995566
H           95.47472431516309       -2.58080111202127        0.44022193539355
H           93.56608990599653       -4.45467711338882        0.79306450096077
H           92.07179558799533       -4.52588768835011        3.01101770506811
H           92.04731818795118       -6.92934836230121        3.57484831637706
H           89.78137957768404       -7.73431909362389        0.01998399024575
H           89.81607338563947       -5.33025299594150       -0.54210379645924
H           88.35394152572906       -4.25050295944851        1.45882917846939
H           86.47653619359828       -2.37245626575067        0.99148540258067
H           86.53321291993508        2.43752136288484       -1.01406922561906
H           88.45068119420466        4.26534031366198       -1.51497092860373
H           92.26212695472685        4.43468265400197       -2.94251577161147
H           92.30214378603377        6.81718505324261       -3.58894280772683
H           89.87158810137254        7.77554901070511       -0.18405355320066
H           89.84287810381296        5.39292801050295        0.46179878149063
H           93.63056403506795        4.44258753060346       -0.61846740319099
H           95.50009859847687        2.57699962448155       -0.06692949872024
C           56.72534284764166       -0.00173736820769       -0.04148881804690
C           55.50388662851589        0.00479897260425       -0.03387949860424
C           58.07562153754790       -0.00561711871303       -0.04796529952757
C           59.29724945711060       -0.00620132806833       -0.05141234473995
C           70.15949917535083        0.01722991589211        0.01542217342822
C           68.93792411069079        0.01229809656359        0.00694892773223
C           71.50971289687092        0.02275482832403        0.01957689373724
C           72.73129787044174        0.02870499732737        0.02013034477954
C           83.59822848018507        0.05864412369857        0.00377826703126
C           82.37733543910895        0.06067199251749       -0.00099159343694
C           84.95021833620956        0.05363044653759        0.01041005703159
C           86.17099552287428        0.04635006769388        0.01581514696145
Ni          64.11766274505895        0.00612109422783       -0.03583772991434
C           60.70226506210826       -0.00247812596770       -0.05193716253663
C           61.37917836515945       -1.19050747289242       -0.34193170438810
C           60.71432833184274       -2.42571232010404       -0.60846644306289
C           61.67312094273579       -3.31360617221059       -0.96720988698228
C           62.92030578120949       -2.61303896497129       -0.92653018742016
N           62.73179753437739       -1.31830340543327       -0.49994790899548
C           64.13204486700702       -3.16336592908556       -1.32392031814790
C           64.13772065971416       -4.53449018797377       -1.88508656955763
C           63.42881149267011       -4.82344973671638       -3.05331131211039
C           63.43552670818679       -6.10128515288358       -3.58309242898625
C           64.14982831485587       -7.12026659993669       -2.94594862007181
C           64.15640060408190       -8.43728714032910       -3.48661831066988
N           64.16187249739532       -9.50163969046725       -3.92389499355521
C           64.85764312891173       -6.83678236625392       -1.77416095289963
C           64.85227383671756       -5.55507483197077       -1.25374689968320
C           65.33858305665093       -2.48425132894612       -1.21652696393911
C           66.59269130863046       -3.00721031250456       -1.66588664253296
C           67.54377379921144       -2.11781056654813       -1.29100353304182
N           65.51555619493774       -1.25905444277207       -0.61480878905887
C           66.86719946361667       -1.05094243057223       -0.62535018102625
C           67.53289386235632        0.00942564720137       -0.00375097451308
C           66.85378135017122        1.06941374055753        0.60386031106578
C           67.51558449370785        2.13959200081422        1.27895735159752
C           66.55631627036323        3.03028352624359        1.62924841819683
C           65.31227400811188        2.50417965145616        1.15632568353601
N           65.50245947931369        1.27603863474027        0.56488768049536
C           64.10319410868823        3.18272785514347        1.23513391042773
C           64.09670312346903        4.55866624556439        1.78421387125529
C           63.36410383429967        4.85809015253950        2.93508250893536
C           63.35750675450328        6.14138221959212        3.45148726796159
C           64.08234653397629        7.15530661854549        2.81819452291900
C           64.07374541722369        8.47835298131780        3.34388923007677
N           64.06770734422267        9.54829115208572        3.76729466442408
C           64.81506334936265        6.86102615240203        1.66449051501844
C           64.82272438679448        5.57399128604014        1.15745745004169
C           62.89945908297994        2.62623555839043        0.82240384142785
C           61.64900858456533        3.32180576688281        0.84264082566789
C           60.69754689451164        2.42543442363237        0.48541555251873
C           61.37059836438358        1.19095655212271        0.23686209007582
N           62.72101276352233        1.32679729679149        0.40548240383503
H           59.64999332852704       -2.57770325632252       -0.52972732446667
H           61.55635812877777       -4.35165054668970       -1.23232548705219
H           62.88276403101756       -4.03299889132456       -3.55570994117954
H           62.88878598629239       -6.31681862282977       -4.49360006628537
H           65.40911865235297       -7.62526168232837       -1.27557442206128
H           65.39337404544808       -5.34106555480751       -0.33898322987557
H           66.71917875103902       -3.93370065811959       -2.20166977369661
H           68.60985168603459       -2.16635632288230       -1.44339792644391
H           68.57818258258887        2.18950932856166        1.45360664401857
H           66.67077767202774        3.95934260833430        2.16330634750759
H           62.80962037692856        4.07174113747944        3.43468278270626
H           62.79177103383758        6.36521600728811        4.34829848190770
H           65.37520254652209        7.64542359261893        1.16913111076969
H           65.38298693661454        5.35151266988232        0.25634802302040
H           61.52495134539171        4.36220314770691        1.09487819866128
H           59.63341578797252        2.57206218927567        0.39480688201543
Ni          77.55342831212050        0.05186120841421       -0.00436237056267
C           74.13651004896055        0.03531642067156        0.01547322210865
C           74.81245854769654       -1.14682194188781       -0.29912729457103
C           74.14528283919711       -2.37849316673569       -0.57666411725662
C           75.10215463710770       -3.26413936791041       -0.94503920665316
C           76.35040988133144       -2.56550722343781       -0.89971730693950
N           76.16437599746990       -1.27381402034063       -0.46247388477010
C           77.56080240796761       -3.11782425287060       -1.29698665507778
C           77.56215761402311       -4.48784245036131       -1.86142824765727
C           76.85831089293457       -4.76947332638027       -3.03446450093890
C           76.85888533853925       -6.04636817150296       -3.56656636052587
C           77.56200319388371       -7.07159558061333       -2.92704015505349
C           77.56202355885441       -8.38771548899568       -3.46994070572225
N           77.56204728945912       -9.45108544549621       -3.90962111205638
C           78.26504253769113       -6.79528387020488       -1.75069116876646
C           78.26573255338006       -5.51453082053225       -1.22783933606050
C           78.76938363752870       -2.44281034297925       -1.18637120607747
C           80.02220036080629       -2.97257607277924       -1.63161518052573
C           80.97557139239089       -2.08379957765042       -1.26197631461270
N           78.94904723973832       -1.21522254323065       -0.59114548277689
C           80.30161003342718       -1.00980684473362       -0.60488635029220
C           80.97004311923023        0.05999855650791       -0.00498910195147
C           80.29653206470351        1.13000344529272        0.58854720683922
C           80.96576864725941        2.21325534921627        1.23521398358849
C           80.00885443432273        3.10313324116090        1.59278427071609
C           78.75823490997689        2.56299556479970        1.15381554932189
N           78.94310705793936        1.33015605193499        0.57148305969261
C           77.54572047150221        3.23111386450459        1.26452724563569
C           77.54295572277390        4.60828438233980        1.81118044787252
C           76.84687015641300        4.90238012101466        2.98578051473338
C           76.84401460162091        6.18672411727803        3.49970049304565
C           77.53605890861903        7.20685360783344        2.84027438348340
C           77.53199650500851        8.53073796964526        3.36391486823714
N           77.52822925627183        9.60073336047424        3.78718947575815
C           78.23211054479081        6.91783631497488        1.66279749338556
C           78.23617356365331        5.62986749830101        1.15809991578370
C           76.33591347211045        2.66417416773523        0.88657909560071
C           75.08122045278657        3.35041360637664        0.94342758510901
C           74.12835721829833        2.45159110252112        0.59728072893505
C           74.80431502329840        1.22482647737204        0.31938138554797
N           76.15697078933556        1.36680371322520        0.46310793017341
H           73.08103570767676       -2.53015414571594       -0.49638204953684
H           74.98372252887711       -4.29971181510907       -1.21887691102262
H           76.32062445127312       -3.97425115283847       -3.53833362848212
H           76.31576476883986       -6.25636831169054       -4.48052464470334
H           78.80784028416276       -7.58862678385167       -1.25033171300428
H           78.80288188987998       -5.30605294814033       -0.30949110959538
H           80.14603510807046       -3.90273812591132       -2.16158901624555
H           82.04147097521340       -2.13600721184045       -1.41422376803532
H           82.03134801035429        2.27118454407852        1.38764698828064
H           80.12877255523583        4.03992778097819        2.11187105639327
H           76.31817287959444        4.11128671272789        3.50541631511139
H           76.30672603128055        6.40649966453578        4.41481133391737
H           78.76675820529977        7.70702381275709        1.14731376325666
H           78.76789609752650        5.41130500568999        0.23892975534094
H           74.95573272568055        4.38705128189905        1.20995292456257
H           73.06149794389904        2.59148705923922        0.53153705257896
