197
 energy: -383.556551482511 gnorm: 0.000625825193 xtb: 6.5.1 (b24c23e)
Zn          30.68370761793189        0.01322566935989       -0.06504783054440
C           27.27686314501803        0.05092320832255       -0.18472354736848
C           27.90780375334544        1.28822468561904       -0.13787562287221
C           27.23422883564056        2.55601982455018       -0.09779200343185
C           28.19310514399517        3.51329752109348       -0.03516197348678
C           29.46595822021903        2.84200402040091       -0.04619396309151
N           29.25711707467784        1.49473017714352       -0.10240791753825
C           30.71647800286658        3.46819601869680        0.02181068814138
C           30.73136119183364        4.95320642060956        0.07100302154771
C           30.22541420881712        5.69671927888009       -0.99524117774364
C           30.24401048514043        7.08582949737111       -0.94773800365580
O           29.76292875208208        7.81846412309943       -1.98221846458668
C           30.76179214829601        7.73650616871235        0.17325783430066
O           30.76268185316469        9.10711877405801        0.19420942782073
C           31.26305326099764        6.99414750643977        1.23923370600301
O           31.75047666494625        7.70240326613534        2.30677469904273
C           31.25410650460418        5.60568282778218        1.19077506546964
C           31.95394810826607        2.81612390402304        0.04957507784384
C           33.23495731461058        3.46677794549668        0.06200925562694
C           34.17963269311490        2.49171719376660        0.06551167992860
N           32.14571758682483        1.45995273503541        0.03588230777564
C           33.48683436379829        1.23717556670780        0.04888534293332
C           34.11606226979155       -0.02438816084823        0.03365906299434
C           33.46103482154305       -1.27191327745612       -0.00552122879855
C           34.12816675192189       -2.54010291312992       -0.04172980250077
C           33.16411085443191       -3.49452741939359       -0.08662889426761
C           31.89644014522863       -2.81793547454734       -0.07139454562562
N           32.11555799107938       -1.46632913218661       -0.02844770824438
C           30.64604547742439       -3.44247335328566       -0.12688362477187
C           30.62955443388697       -4.92803337986256       -0.15130693610470
C           31.14090747288992       -5.65305384943768        0.92512854423208
C           31.12147862426655       -7.04274299851766        0.90246158451931
O           31.60830771218240       -7.75712026180737        1.94687696441404
C           30.59616027600342       -7.71281644550172       -0.20345497675020
O           30.59319010589115       -9.08373389084603       -0.19971960453300
C           30.08903476523677       -6.98910001062919       -1.27934637226373
O           29.59398769510681       -7.71571765745868       -2.33110467320503
C           30.10003046920665       -5.59997551544738       -1.25624623974404
C           29.40820294725317       -2.78824667356066       -0.16392117361688
C           28.12181311545164       -3.43300740525671       -0.17746449153822
C           27.18251700555263       -2.45427965375574       -0.19927149663892
C           27.88199779232640       -1.20029447403397       -0.18905417641725
N           29.22673088173934       -1.43604001464532       -0.16486754547912
H           26.19146531412390        0.06263900966560       -0.20742859003380
H           26.16319531921014        2.68476856720258       -0.10878196437825
H           28.05551724938105        4.58108455760469        0.02378003635255
H           29.83355531715458        5.20243355484346       -1.87483254378541
H           29.86292338597568        8.75911912357702       -1.76085965704722
H           31.15475725567824        9.39219954042916        1.03489476890477
H           32.07361281982592        7.10651972384350        2.99532006011098
H           31.63507154640313        5.03402616153226        2.02898082595469
H           33.39076375119649        4.53362340838842        0.05369062844932
H           35.25209943743738        2.60484719216172        0.07204752998640
H           35.19811965964464       -2.67485691402111       -0.03861661706449
H           33.29794207691945       -4.56302798766784       -0.13753236811252
H           31.53881949235568       -5.14348820618129        1.79319821842727
H           31.50512806360643       -8.70152010691340        1.74399393676437
H           30.19809382019427       -9.38293343423035       -1.03401281223132
H           29.26073480886051       -7.13132734371835       -3.02461696576683
H           29.71589444310345       -5.04325013651255       -2.10302467477263
H           27.96158704748747       -4.49925316191920       -0.15880179596772
H           26.10900593252801       -2.56075712631424       -0.21252948281894
Zn          62.77045761240137       -0.04278685049892       -0.05106773706816
C           66.17729345970434       -0.06847797437345       -0.18318366042184
C           65.54530738365740       -1.30276187223930       -0.27489812835126
C           66.21769472517575       -2.56733818588555       -0.38171105969544
C           65.25801994602898       -3.52488008387148       -0.42580014007830
C           63.98588831046218       -2.85581744361134       -0.35617423035881
N           64.19589979914876       -1.51108362614069       -0.25904341053884
C           62.73498603629918       -3.48483712475222       -0.35644394023046
C           62.71914013552747       -4.96605720243790       -0.47509825251885
C           63.21580595122395       -5.58451460104377       -1.62240350008173
C           63.19639698953937       -6.97015582692392       -1.73156809072847
O           63.66832754992008       -7.58153603105126       -2.84594491570787
C           62.68749167667919       -7.74301364682535       -0.68668286031395
O           62.68583796938453       -9.10738534856992       -0.82011327012895
C           62.19571514194340       -7.12556577922911        0.46027561506761
O           61.71695157293095       -7.94957983540749        1.44562328024753
C           62.20503488460154       -5.74046123823989        0.56832616766988
C           61.49811039021186       -2.83962712467511       -0.25273156088839
C           60.21669962444503       -3.48694512831301       -0.31173237842546
C           59.27270287857201       -2.51794038800546       -0.19761853648121
N           61.30727617590036       -1.49045698483049       -0.11302395475455
C           59.96637092385828       -1.26984750083830       -0.07345849057859
C           59.33815409189231       -0.01437880878245        0.05647813639357
C           59.99426880887721        1.22876738632849        0.16150954855921
C           59.32852477242233        2.49309750497578        0.27632576471236
C           60.29358629110993        3.44528663779160        0.34148941989408
C           61.56042163124310        2.77044820985429        0.27275251583096
N           61.33986395782492        1.42327891583144        0.15802195518161
C           62.81105478638464        3.39640858168456        0.28450869030714
C           62.82863681151325        4.87498616251778        0.43263077519141
C           62.33413341949915        5.46886765555242        1.59380975784558
C           62.35522844645654        6.85172402934145        1.73338857413176
O           61.88574869488376        7.43884621425635        2.86155342071911
C           62.86414341779357        7.64655958868261        0.70512382109591
O           62.86880229525117        9.00754324518607        0.86887803563890
C           63.35357274175434        7.05369159642110       -0.45569308667587
O           63.83262323955715        7.89842200824439       -1.42319934088513
C           63.34215794775349        5.67125838515437       -0.59435083367234
C           64.04812214265644        2.75061279101256        0.16659355290063
C           65.33472543075268        3.39283714902129        0.21933939958944
C           66.27333835418358        2.42268763644234        0.08343547729860
C           65.57316682464015        1.17550538349717       -0.04425050307924
N           64.22869421920198        1.40717317152361        0.01210083203157
H           67.26260125027497       -0.07816857443805       -0.21064271713312
H           67.28855852591322       -2.69470998126009       -0.41077333052170
H           65.39451203915364       -4.59251666147493       -0.49006974723359
H           63.60112395039839       -4.99418512321498       -2.44374384317154
H           63.56849523075976       -8.54109153927776       -2.73163973971824
H           62.30080712820416       -9.48514159997982       -0.01340126519982
H           61.40041157736830       -7.43465001570389        2.19939439760611
H           61.83105464710052       -5.26680130460835        1.46851388740503
H           60.06039695995712       -4.54611444459038       -0.43927524521688
H           58.20016712748285       -2.63045792426964       -0.20266662632574
H           58.25874389057392        2.62745913088349        0.29828467296670
H           60.16136282542448        4.51246729445507        0.41792772246427
H           61.94814939032588        4.86107165733022        2.40198025305963
H           61.98591361638631        8.40064103702441        2.76848362208851
H           63.24922310752228        9.40278120638274        0.06841610982726
H           64.14876556670683        7.39961646587571       -2.18790486919557
H           63.71332201497218        5.21714678731598       -1.50569751470082
H           65.49524540599484        4.45041208594006        0.35600133533227
H           67.34684560529796        2.52987777327729        0.07713363902660
C           39.31720561497558       -0.04867415597673        0.04476014888219
C           38.08863391039369       -0.04917260906787        0.04931850657821
C           36.74482268571967       -0.04474806515363        0.04919256644020
C           35.52070695053983       -0.03783469450631        0.04573528673812
C           40.66085128665891       -0.04570577091930        0.03745985411220
C           41.88511030559700       -0.04105832336233        0.02577783372881
C           55.36568995105750        0.01244204450544        0.07698946714528
C           54.13718451997878        0.01391864636705        0.07120810786797
C           52.79357954769945        0.01274990163222        0.06138543878525
C           51.56932554032682        0.00889319193176        0.05047061101050
C           56.70943986238634        0.00608574936489        0.07529599403971
C           57.93357493408377       -0.00117076598525        0.07085271187581
Zn          46.72745892378065       -0.01553365632320        0.01555678232132
C           43.28918651148694       -0.03418576109612        0.01908233029707
C           43.92631944430159        1.21977645504620        0.12123936559122
C           43.24142890828714        2.47017432742943        0.26080975578508
C           44.19174989799374        3.43869578452630        0.31807118647747
C           45.46670788137432        2.78785834645716        0.20566749425907
N           45.26819476670138        1.43701854707465        0.09689333178217
C           46.70875841056384        3.43231304345679        0.22769546036768
C           46.69972196534421        4.91514419908952        0.30833473647849
C           47.27810060431539        5.56656431592812        1.39816133281595
C           47.27495014363073        6.95605278220179        1.48705119953834
O           47.82669152999122        7.60043555536547        2.54873328616522
C           46.69347780178514        7.71517838361972        0.46658877205173
O           46.67970571268089        9.07290298559841        0.52065689723636
C           46.11958610845884        7.05568472757319       -0.62338164622863
O           45.57075203999914        7.85769545058865       -1.59130274827110
C           46.11292549348101        5.67046914321938       -0.70860718804607
C           47.95805440310081        2.80377310490531        0.17869211987758
C           49.22643684742462        3.47653260070615        0.15318016419209
C           50.18706578433655        2.51790051041337        0.10461690423344
N           48.17084297840350        1.45165432446084        0.12751466276069
C           49.51516203428240        1.25283852195499        0.08813842062671
C           50.16528941734580        0.00252602750936        0.03776889645574
C           49.52841581484490       -1.25323768709486       -0.02986869330332
C           50.21287437109326       -2.51168890616622       -0.05974070273997
C           49.26273361419361       -3.47818114027142       -0.13978419105968
C           47.98799463398868       -2.81713139208549       -0.16663538899996
N           48.18645540713323       -1.46442982636201       -0.08787131737119
C           46.74614108760851       -3.45748025552606       -0.23816603215323
C           46.75645689201929       -4.93825517337617       -0.36530245345950
C           47.34013955653538       -5.53393521328684       -1.48389712750773
C           47.33768874640367       -6.91793586447358       -1.61419306094962
O           47.88652030856522       -7.50868607534587       -2.70201434024863
C           46.75591057196214       -7.70664603379335       -0.62019383732225
O           46.77734456594580       -9.08614312444929       -0.78136647279729
C           46.20752442183143       -7.11474543099198        0.51619095588997
O           45.67313795365479       -7.88720802689555        1.50484653735361
C           46.19092393828104       -5.72961344166677        0.63494648428637
C           45.49672492707518       -2.82904997928919       -0.20476915136179
C           44.22849769904578       -3.49337377278683       -0.31793469806974
C           43.26766450771068       -2.53708375077348       -0.24172716485884
C           43.93911546788971       -1.28005413427254       -0.09322427304075
N           45.28358253285386       -1.48200695449251       -0.07881029117354
H           42.17053177105767        2.58516214507611        0.31485283743272
H           44.04310247033074        4.49960346668607        0.43966880502520
H           47.72065181218753        4.98768118077317        2.20106739573118
H           48.19772323578113        6.97260865408950        3.18245855123149
H           46.23560545193629        9.40272155027667       -0.27707423589986
H           45.19760858517287        7.32638744348765       -2.30651999057383
H           45.67290133287216        5.18321646752335       -1.57081192946021
H           49.36419686472124        4.54577569815081        0.15864408940689
H           51.25694398039633        2.64931085370125        0.07300933166881
H           51.28358835557513       -2.63314897763012       -0.01860013264539
H           49.41050321915779       -4.54569801566358       -0.16657185523314
H           47.77543314067786       -4.92851900833748       -2.26836902381873
H           47.79458774649837       -8.47139678034437       -2.60458806864219
H           45.91209035463983       -9.46644491393391       -0.58199949924494
H           45.98308793348595       -8.79984174319323        1.41660453458240
H           45.76201355457515       -5.27949401377632        1.52084098638852
H           44.09158789722724       -4.55472667335853       -0.44852170255207
H           42.19777695459781       -2.66360172816139       -0.28924231906977
