134
 energy: -262.564145639388 gnorm: 0.000736714745 xtb: 6.5.1 (b24c23e)
C           12.77533182656349       -0.06318846611110        0.08932400828340
C           13.37328139671978       -1.27382002145508       -0.23511941533228
C           12.71173546672835       -2.50670526787939       -0.49707860074474
C           13.66384270136231       -3.44230251531834       -0.78777598313096
C           14.93789713129000       -2.80827782292945       -0.72225163470527
N           14.71233712581401       -1.50663696113542       -0.37638155657813
C           16.19518134154124       -3.38322575912088       -0.93905462539426
C           16.21431737094387       -4.81438603752482       -1.32655113223236
C           15.59089950962377       -5.23546388247566       -2.50407483771543
C           15.60800360440546       -6.57109912186887       -2.87051157127286
C           16.24918705916651       -7.47947517006366       -2.04383233508568
S           16.27839238364388       -9.17079610035703       -2.50444941042381
O           16.13872458248143       -9.32045168338261       -3.92356753864030
O           14.87817386894489       -9.62755801726728       -1.81862983728774
O           17.35206474485372       -9.85379321232893       -1.84606273320239
C           16.87761161648055       -7.09268025643456       -0.87131997750339
C           16.85822205672988       -5.75382657003911       -0.51707758871710
C           17.41671832337109       -2.71564348458524       -0.81813141426417
C           18.70478243412318       -3.31998185665640       -1.10848242461143
C           19.63352611915092       -2.37043620813879       -0.87278019670827
N           17.58320715629005       -1.41949751998957       -0.43802755548577
C           18.91114404421872       -1.18593937590658       -0.45034837142288
C           19.55987532700951        0.01655955724185       -0.10456083759120
C           18.93700519437855        1.22444332827662        0.26241699842168
C           19.59453060343831        2.43075770248389        0.62172917532876
C           18.63722829726668        3.36868062633528        0.89280232509349
C           17.36423461458748        2.76375868015925        0.69947478073750
N           17.59735422723464        1.46676569202311        0.32730351464751
C           16.10651814113980        3.34981143395643        0.88046780347161
C           16.08800580320414        4.78270741225895        1.25938422512445
C           16.64627371570366        5.74274918974998        0.41107576736213
C           16.62743331918091        7.08371412813234        0.75691675559832
C           16.05149564441806        7.45178710944602        1.96209369597825
S           16.01903556796396        9.14894580285900        2.40055963364672
O           16.06721586023232        9.97816002226433        1.23259101352676
O           17.46448023843958        9.22819677976500        3.13584931030373
O           15.00229192151103        9.40293620868841        3.37791377469319
C           15.48981340364803        6.52400450821542        2.82397175997816
C           15.50917239735084        5.18618325148327        2.46548111101728
C           14.88334058418848        2.68802176119413        0.72975933729944
C           13.58290144507069        3.32539611520731        0.87111885987319
C           12.66199313254392        2.36592762956693        0.65220599603438
C           13.39807525684774        1.14686967876900        0.36505368117918
N           14.73258415237937        1.38060543394260        0.41206796998688
H           11.69069817454570       -0.07209485509028        0.12583774782873
H           11.64337706603735       -2.64725702435642       -0.45901264614641
H           13.50415201775021       -4.48295216885808       -1.01902886622051
H           15.44305323425899       -0.81588284923273       -0.24157080304842
H           15.10716736247436       -4.50713673114157       -3.14451444089042
H           15.13852776729121       -6.90603878778587       -3.78694028462665
H           14.63988399304552      -10.51656607645287       -2.10848171511023
H           17.37409280481458       -7.82865588110112       -0.25151106835160
H           17.33413534176823       -5.43194891323379        0.40178364645567
H           18.85584163060481       -4.32806404395901       -1.45889798620248
H           20.70463128994906       -2.43671228961974       -0.97680389662006
H           20.66439933019051        2.55450939109442        0.66856433093355
H           18.79629496820927        4.38649899418306        1.20945139739654
H           16.86751193285061        0.78766925325781        0.13787814432548
H           17.07951714827167        5.43592500185200       -0.53378939867490
H           17.04622820696267        7.83677687403880        0.10127412441879
H           17.64216633271458       10.12930328749885        3.43179884732023
H           15.04346076764767        6.84722937056183        3.75600034546571
H           15.08552181851835        4.44325398050921        3.13105112202342
H           13.42156888625833        4.36790672822510        1.09317583945147
H           11.58650023296902        2.44611180040456        0.66666200586558
C           32.94989456676377        0.00692914642513        0.11085400447859
C           32.35164974335573        1.20473851548741        0.47935691466847
C           33.01290361436953        2.38873156369657        0.91199173732294
C           32.06053433664055        3.33552163234181        1.16285099087824
C           30.78657833829370        2.76300101953547        0.88220920244661
N           31.01248852502187        1.47655910546726        0.48371185290499
C           29.52912180993902        3.36466320950817        1.00520504027160
C           29.50978776667277        4.78286032728405        1.43771648393667
C           30.13165846285024        5.76579478173766        0.66336551788923
C           30.11455986738370        7.09184019882206        1.06314850313075
C           29.47492601504037        7.42138884483107        2.24717308962821
S           29.44605917351111        9.09862363050861        2.75669514141372
O           29.58477856896674        9.98020203924404        1.63448135548970
O           30.84691115276387        9.12060864675774        3.57931975585047
O           28.37315230177525        9.32672116336072        3.67842467358706
C           28.84792939917604        6.47015315497860        3.03543978102795
C           28.86729863256346        5.14788699176146        2.62362570425178
C           28.30761725467013        2.73443913616889        0.75383414475792
C           27.01932934420288        3.40009904028011        0.83055226219799
C           26.09080639239860        2.47062123361165        0.52450085646272
N           28.14142305048147        1.43483596953707        0.38567514945727
C           26.81351199894905        1.24332768861707        0.25105437882459
C           26.16520203281159        0.04130957580679       -0.09709184275206
C           26.78847030096589       -1.17665374823256       -0.42829634615846
C           26.13125918024614       -2.38941516983294       -0.76584608173485
C           27.08881578454899       -3.32771679145715       -1.03464845828341
C           28.36165881518702       -2.71237716022528       -0.87635180048435
N           28.12818745539672       -1.41621715612128       -0.50147507499446
C           29.61949181243428       -3.30446958373484       -1.03553648009233
C           29.63803034627567       -4.71918794367755       -1.47747661700161
C           29.07869502422068       -5.08075654403889       -2.70604003688137
C           29.09665398223207       -6.40027185207631       -3.12646147142757
C           29.67302797349175       -7.35320788312625       -2.30226329644767
S           29.70404255526427       -9.02394222775937       -2.83277320313998
O           29.65080452144165       -9.10637095864384       -4.26269270849439
O           28.26086998942705       -9.48197948952628       -2.24711568534458
O           30.72375197617897       -9.75744721878457       -2.14304276190003
C           30.23617970939159       -7.02606232983226       -1.07956508073125
C           30.21752664221329       -5.70255777801157       -0.67143608070556
C           30.84254587436788       -2.66368475501928       -0.81107459831659
C           32.14313459714047       -3.27817177069631       -1.03073821150944
C           33.06382282171408       -2.34928887417513       -0.70501339609607
C           32.32746328115434       -1.16459760715450       -0.29924574455036
N           30.99300751885452       -1.38778763996552       -0.38396969454434
H           34.03453007005887       -0.00469458792360        0.14661743582612
H           34.08126166319494        2.48803290983751        1.01849132641497
H           32.21999016853808        4.34020467915420        1.51938694179465
H           30.28198839853217        0.81933736874870        0.23135058751435
H           30.61421712374791        5.48964588670095       -0.26696109815607
H           30.58289608494604        7.86294182157827        0.46439531918138
H           31.08520889654484       10.02757904648748        3.80679738204151
H           28.35260441316099        6.76377064099282        3.95236531942103
H           28.39256575021752        4.38651712947965        3.23136731167741
H           26.86794609224815        4.43982800229464        1.07115169353484
H           25.01962964059950        2.58170864846020        0.47232103523254
H           25.06142616544281       -2.51932562066495       -0.79226918426093
H           26.93000796605034       -4.35813680089250       -1.30767395807601
H           28.85780141938785       -0.74017383208443       -0.30061187243976
H           28.64508619822171       -4.31824222874700       -3.34257846692864
H           28.67678709705421       -6.68900943414911       -4.08183164030226
H           28.07559373648718      -10.39816028442753       -2.48686214977015
H           30.68288915685943       -7.79568660433524       -0.46270390497608
H           30.64212144860918       -5.42762044279174        0.28695875329367
H           32.30474410162331       -4.27877277133838       -1.39794424522785
H           34.13933781702819       -2.42465338658809       -0.73532011340952
C           22.18787204121402        0.03443517638498       -0.12780036528840
C           20.96587932920723        0.02428059660438       -0.12180822715338
C           23.53720540902381        0.03718230664779       -0.12693651538336
C           24.75922928150763        0.04424084495743       -0.11872059916213
