282
 energy: -449.881025264742 gnorm: 0.000498463595 xtb: 6.5.1 (b24c23e)
Fe          46.51110905260331        0.11218283396308       -0.40953617075383
C           43.24163049565799        0.33564696625322       -1.21427568092956
C           43.84346083384913        1.45070626096439       -0.66572171713093
C           43.14291598068240        2.66230837916775       -0.36316318173492
C           44.02969001721156        3.47997456990990        0.25260985446581
C           45.28452363300086        2.78551843508658        0.27995370861328
N           45.14800672286327        1.53430292468241       -0.25745309510005
C           46.47890826659169        3.34488024074484        0.72320747273715
C           47.69914702196446        2.69328269962870        0.60822674325094
C           48.96420901367301        3.32309881941742        0.84452533910900
C           49.91882673169170        2.41728914911958        0.52080631343362
N           47.88508287656024        1.40676847202383        0.16406698059198
C           49.23478797771451        1.22726996045941        0.12108120422882
C           49.89199576321781        0.02183919419156       -0.16179688725301
C           49.20737680622897       -1.18460173171013       -0.36679012654238
C           49.86248587192054       -2.45191233883211       -0.45656354461038
C           48.88748341561853       -3.38461208188057       -0.58137822807719
C           47.64004005987873       -2.67937966540029       -0.60086079402440
C           46.42007020216074       -3.27981777342757       -0.87875211588205
C           46.38412550882738       -4.75572636890411       -1.01809338271733
C           46.08680671729903       -5.34919892184033       -2.24213700921665
C           46.06813609201780       -6.73598074463255       -2.36855715025073
C           45.74387373847827       -7.36074340738495       -3.69871166267276
C           46.34734892039377       -7.52498187378556       -1.25909662070977
C           46.65010130061815       -6.94532702240331       -0.02851154081937
C           46.94516724436860       -7.81752877840323        1.16166996310946
C           46.66916353637438       -5.56109206152839        0.08526175976453
C           45.25564351910327       -2.54929113493659       -1.09808196306652
C           44.01204431220241       -3.12033990349019       -1.52794599531090
C           43.14581713165196       -2.09293754337123       -1.69548089097707
C           43.84538667409272       -0.90121512358694       -1.32013387166682
N           45.13547409503812       -1.19330330771971       -0.96286645073501
N           47.85616819392816       -1.33027334185455       -0.45108433607918
C           46.47040312248257        4.72290700131293        1.27089039212380
C           46.10177206065478        5.80403794430985        0.47129953980300
C           46.10259476164325        7.09497389951240        0.98757934339309
C           45.73130271954932        8.26443033267730        0.11631259051154
C           46.47197583667688        7.29922904295820        2.31427779415516
C           46.84480756945248        6.23068717271693        3.12338942831260
C           47.22317663558556        6.45772880333067        4.56200481993145
C           46.84614975456257        4.94396726646162        2.59454136793516
H           42.20093481314423        0.41647613692844       -1.50811077037848
H           42.10048677391466        2.83668344730685       -0.57795060323774
H           43.86183495820625        4.46790264104257        0.64975078618645
H           49.09348667444600        4.33635600262089        1.18867882451170
H           50.99086548448005        2.52513152897709        0.56030209231836
H           50.93023422920323       -2.59540277898539       -0.41487401749895
H           48.99407518964158       -4.45251234492376       -0.68102143417996
H           45.89081770703748       -4.72481102791338       -3.10690741219583
H           45.87729512489497       -8.44186121111481       -3.66628181014795
H           44.70841227900762       -7.14723342571917       -3.97134271844554
H           46.38756130910546       -6.95132833164845       -4.47886547599552
H           46.33497271597393       -8.60619186726182       -1.35110166273227
H           47.34311735682385       -7.22906336343331        1.98816566311042
H           46.03223720608232       -8.31294182720742        1.49865688643834
H           47.66958709589043       -8.58990041958725        0.89928909123630
H           46.89557704705585       -5.09557108742468        1.03820465213882
H           43.83554171659419       -4.17248810734091       -1.68167193937094
H           42.11608196021949       -2.12338373659849       -2.01474675807868
H           45.83230956882498        5.63399781930331       -0.56528415227200
H           45.18053421765829        9.01252797900217        0.68729807229987
H           45.12034324195954        7.94353217132586       -0.72740032874305
H           46.63486412533810        8.73643139308986       -0.27627262951071
H           46.47165868960846        8.30538215113031        2.72086397827858
H           46.34461260244833        6.33696448324707        5.19992193193881
H           47.61297993979811        7.46528540156134        4.70760333349646
H           47.97588978828703        5.73732318372996        4.88310305037608
H           47.12768369502995        4.10106481766710        3.21613471280989
Fe          86.74447200899920        0.19003963836922       -0.18252362621313
C           90.06060052600468        0.74373723050343       -0.59662832818531
C           89.39917606647258        0.02585003767925       -1.57172564658579
C           90.04904073687740       -0.54615240360778       -2.71253015610538
C           89.13405710682228       -1.33303804940043       -3.32644031768893
C           87.91435332997881       -1.21331651283312       -2.58100877217181
N           88.08613654929613       -0.36404917485221       -1.52108892863245
C           86.74486135826999       -1.90474390173367       -2.87849349629192
C           85.55506333554202       -1.70308057421607       -2.19287381287388
C           84.30880020912595       -2.30559084404851       -2.56411009377359
C           83.35013079728239       -1.72389359903520       -1.80359735366249
N           85.35744602898940       -0.78786463186045       -1.18639421052259
C           84.01349907134764       -0.78225650207247       -0.95718229795848
C           83.34356804328573        0.05934773459986       -0.06225167675715
C           84.01490961924604        0.87142452368132        0.85653262183309
C           83.34916480828406        1.63178490201105        1.86785113629846
C           84.31321845342866        2.11096682036564        2.69085008408641
C           85.56795282779866        1.66135279952249        2.16545994051262
C           86.79878983756313        1.95421906423331        2.73982989490622
C           86.81110165128490        2.63582012903539        4.05606572996936
C           87.36660265626539        3.90448233604414        4.20043364654837
C           87.36930923807783        4.53757755857171        5.44096667588606
C           87.96371583763649        5.91361694199239        5.57599264773940
C           86.81478779257743        3.88954407625260        6.53807701406489
C           86.25317336747446        2.62049355078501        6.40896229945016
C           85.66331398915679        1.93373213596059        7.61103607104328
C           86.25101983099316        2.00110606475590        5.16607339296903
C           88.00634463421450        1.67043894602348        2.11227435725987
C           89.29237210741205        2.03855255512467        2.63074261609055
C           90.19962163232663        1.75746556538319        1.66523645455005
C           89.47428123283805        1.17645260537329        0.57624696222088
N           88.13917381023039        1.10695801143813        0.87046221148780
N           85.36898197221532        0.93239985130947        1.01930199830728
C           86.75091176302298       -2.86596308446232       -4.00906141948258
C           86.93831632866517       -2.41687251569304       -5.31540884119480
C           86.93862940385694       -3.31548547758844       -6.37647575823749
C           87.11573028429098       -2.82526394339261       -7.78820531812544
C           86.75113013035465       -4.67132961563155       -6.12234018705536
C           86.56104150509586       -5.13369855590768       -4.82412575368890
C           86.37896391873285       -6.60299746093162       -4.55465855271714
C           86.55990783326070       -4.22520941286841       -3.77031219024318
H           91.12083903524163        0.92585805706393       -0.73180679109633
H           91.08143545402639       -0.37920278106713       -2.97621494280606
H           89.26366411771033       -1.94796042584209       -4.20226797306167
H           84.19039493738040       -3.05789266706235       -3.32685423145495
H           82.28739310656923       -1.90580275056784       -1.80372794494641
H           82.28045436682712        1.75646353844361        1.93723105546771
H           84.19737721800492        2.72670063304737        3.56796672170544
H           87.78137304858316        4.40949003767058        3.33494052755204
H           87.96071566247532        6.24100609873038        6.61546784448517
H           88.99160536978162        5.92126639081521        5.20958740029235
H           87.39105211456756        6.63056486746649        4.98446830218281
H           86.81556237371070        4.37653194265154        7.50787923020461
H           85.16051956444214        1.00989817472199        7.32569756627054
H           86.44933833437931        1.69264678482715        8.32948946644761
H           84.94305271792533        2.58599205407089        8.10737763411550
H           85.82550330956192        1.01011531741420        5.05194021108492
H           89.46606482380091        2.46270735952785        3.60640627314075
H           91.26795859081423        1.90497399797125        1.67934396719444
H           87.06736530021544       -1.35636901205565       -5.50178781930785
H           87.66112139341794       -3.55569375919699       -8.38643083566928
H           87.65633959061047       -1.87887000546049       -7.80660483576769
H           86.13912085025277       -2.66891467081582       -8.25207237301871
H           86.75148890466575       -5.37559205034076       -6.94798364080350
H           87.33970643249623       -7.05517209683158       -4.29801084451250
H           85.98593203926882       -7.11445574713526       -5.43340757498214
H           85.69696908979391       -6.76143640216991       -3.71880566072364
H           86.42242804090372       -4.57378887510778       -2.75260340668635
C           52.51564885481719       -0.01391266434920       -0.16038742812223
C           51.29104231318546        0.00386234956677       -0.15718128859086
C           53.86060347419478       -0.02905847467582       -0.15641865309913
C           55.08531807940014       -0.04379833104277       -0.14719551306041
C           65.93331311752355       -0.06928754042147       -0.06938521799926
C           64.70845495666283       -0.07669018162407       -0.08190066984283
C           67.27808778150505       -0.05993226328189       -0.05831617254457
C           68.50277056875804       -0.04597279054062       -0.04382597519506
C           79.36678834259835        0.01988392805256       -0.04720275584409
C           78.14440257821823        0.00507248243839       -0.04701027328888
C           80.71650851831173        0.03213161864635       -0.05001269541180
C           81.93877012318579        0.04286502982911       -0.04960356719983
Fe          59.89687626578787       -0.06347838616203       -0.10274577133243
C           56.48371016908374       -0.05129038026893       -0.13377227927254
C           57.15954257471851        1.17020047126273       -0.00168247229027
C           56.49466176258903        2.42411394763964        0.16121036958002
C           57.45457632699654        3.38058480034958        0.11179508883181
C           58.69978242993223        2.70401603352974       -0.09232868609084
N           58.50625166984977        1.34451645011667       -0.11135028887890
C           59.90923566479556        3.34931008074123       -0.32088764306156
C           61.11389440031548        2.67178568200266       -0.46347169497705
C           62.36403275153252        3.30803442690816       -0.75090268772520
C           63.31675680707361        2.34592185107415       -0.67994641964895
N           61.29774987758848        1.32387436574261       -0.27287800765111
C           62.64265819706103        1.12724061425329       -0.36138588851903
C           63.31007886671301       -0.07572057763548       -0.08987680143186
C           62.63270986255051       -1.27370075255383        0.17812737638127
C           63.29561964377079       -2.49560268936410        0.50740206680703
C           62.33469401026381       -3.44925120370998        0.58256625827730
C           61.09080206412917       -2.80528041321574        0.28479988643551
C           59.88145104698452       -3.47440230835092        0.14106312266699
C           59.87199845061028       -4.95130376863176        0.26080410953577
C           59.12419297007488       -5.56755899501548        1.26255984742091
C           59.11553425949720       -6.95326960269480        1.38607559905037
C           58.32956939299923       -7.60965095152395        2.48864956386611
C           59.85615842787163       -7.72122300135721        0.49358269458179
C           60.60318899313378       -7.12031351672031       -0.51663004372302
C           61.40312604062589       -7.96824996424108       -1.46815965581555
C           60.61129734999331       -5.73484658604170       -0.62536218652995
C           58.67960167939758       -2.82233820501665       -0.10878111967167
C           57.43284038657450       -3.49185662275007       -0.32672156060224
C           56.48164431613107       -2.52873908953252       -0.40740576008872
C           57.15299012322852       -1.27808644092220       -0.24621330794730
N           58.49611870411277       -1.46138780060358       -0.10846732442727
N           61.28657871054114       -1.46040093281681        0.08455139962283
C           59.91449445517927        4.82763250849333       -0.42033144914883
C           60.65223895867823        5.59024769060532        0.48363480385030
C           60.65712606270694        6.97847469967671        0.39668550594391
C           61.46427056738963        7.79469795390699        1.36959297639672
C           59.92565006295290        7.60082153321726       -0.61007818229062
C           59.18638083081772        6.85257403547157       -1.52211789608226
C           58.41723805920764        7.53774907645280       -2.61896511918760
C           59.18146685426472        5.46609476015154       -1.42021948713716
H           55.43123018264414        2.54299476913867        0.29284397983306
H           57.33916878860803        4.44801174584412        0.20612247657755
H           62.48749019316892        4.35417480568663       -0.97879558816147
H           64.38078998509340        2.43932257314461       -0.82631712418327
H           64.35840708629283       -2.59637919199769        0.65810761060261
H           62.44882314417858       -4.49454745558620        0.81903662549438
H           58.55976693250442       -4.95702705801342        1.95880712657120
H           58.01842743001785       -8.61375721000117        2.20002430904113
H           58.94671997609046       -7.68963495900445        3.38650022464357
H           57.44507622415793       -7.02270739848617        2.73705139107630
H           59.85012295820241       -8.80272815417809        0.58276910808342
H           61.74193259042736       -7.38298111107171       -2.32278067957820
H           60.80631485289938       -8.80662880267260       -1.82971976111830
H           62.28009245146016       -8.37392066973795       -0.95916510801357
H           61.17803601070892       -5.25442164505946       -1.41530405883901
H           57.31075983075250       -4.55950923677849       -0.40947265650387
H           55.41987223980419       -2.64087928993746       -0.55743502044014
H           61.20781411611519        5.09352645831571        1.27146535293623
H           61.02386854368679        8.78218080114596        1.50826686296658
H           62.48022071110908        7.92552088864887        0.98991642261890
H           61.52602156081961        7.29574141853842        2.33692557906061
H           59.92831306351180        8.68349190481728       -0.68363982097579
H           58.00368784515936        8.48397352900737       -2.26899671681430
H           57.60350113876878        6.90688695010756       -2.97666795757337
H           59.08052782927803        7.74896432243698       -3.46083511727485
H           58.61841433379652        4.87083105113662       -2.13062169275453
Fe          73.32118492035345       -0.01927075360536       -0.02558090823713
C           69.90164818983133       -0.03731388324238       -0.03191148420985
C           70.56528267190386        1.19701502746072       -0.03795694043803
C           69.88007546149734        2.45061655210806       -0.00749458954163
C           70.83022359036002        3.41286099539396       -0.09443566794754
C           72.09096807155498        2.73989816101545       -0.19003536633790
N           71.91278696726857        1.37876598405003       -0.11879186338515
C           73.30278167513912        3.39150133211540       -0.37276057514122
C           74.52322980113058        2.72750597339931       -0.41984929312875
C           75.77612858816545        3.38106624182465       -0.65194801156509
C           76.73653413803561        2.43066245986196       -0.54931829977253
N           74.71420210179342        1.38339874729643       -0.21733502000344
C           76.06540212530152        1.20096515843881       -0.26788389093895
C           76.73972506989756       -0.00344287445357       -0.04182070343876
C           76.07948410493590       -1.21406874350334        0.19229740360935
C           76.76519438682381       -2.43709752405664        0.46790619879591
C           75.81453391830131       -3.39531342851467        0.58771158644450
C           74.55291138576757       -2.75320084625637        0.37160772919618
C           73.33794270323632       -3.42776755891270        0.34434804460186
C           73.34302490234562       -4.90120697039090        0.51183438843397
C           72.70526672653619       -5.48360317139755        1.60591452402486
C           72.70296005984684       -6.86500182923672        1.76837578150292
C           72.03460393202275       -7.48654814115196        2.96475739735390
C           73.33991607201216       -7.66326798135067        0.82332543532681
C           73.97722933120011       -7.09641086150261       -0.27686344857774
C           74.67226854622785       -7.97191523550477       -1.28421233691561
C           73.97979043384478       -5.71392304109978       -0.42515432370201
C           72.11873433804861       -2.78935553348156        0.16487490888650
C           70.86507587334863       -3.47648738220497        0.07700623337951
C           69.90567306580735       -2.52546263422059       -0.02853192829458
C           70.57791502419232       -1.26451141262910       -0.01209452248052
N           71.92682598495855       -1.43128420274113        0.07766175834541
N           74.72945633208165       -1.40832805070500        0.16066378788970
C           73.29516395662998        4.86567404243012       -0.53146383073132
C           73.94946572143739        5.67725495202329        0.39362030646699
C           73.94082253249401        7.06090563241662        0.24923281026987
C           74.66121910758042        7.92948481350574        1.24469603839826
C           73.27775153154583        7.62912560433406       -0.83385447884671
C           72.62115556969802        6.83155164509640       -1.76704822047658
C           71.92412081942642        7.45796344143266       -2.94436075723580
C           72.63159052309378        5.45025560884862       -1.60974753255002
H           68.81103284442068        2.56414354451084        0.07359160677468
H           70.69936413971335        4.48261612525483       -0.08951046101292
H           75.89574382604346        4.42962496800016       -0.87023328606794
H           77.80405261334897        2.53694029814102       -0.65570577457905
H           77.83509877344616       -2.53367212687374        0.55871567239328
H           75.94578645201625       -4.44236472717008        0.80671783565270
H           72.22019797234401       -4.84952543459930        2.33990277016729
H           71.65891265430450       -8.48181195444823        2.72636688261885
H           72.75239777058277       -7.58134859088009        3.78278404043069
H           71.20561379891929       -6.86901936374342        3.31100576428679
H           73.33660550358192       -8.74184319382902        0.94295057015445
H           74.76755151719136       -7.46257768462271       -2.24314597702047
H           74.12403555528597       -8.90290526274735       -1.43130674798169
H           75.67470326437545       -8.22199541734189       -0.92940921100182
H           74.46095112134668       -5.26023956648715       -1.28462003806804
H           70.74513353193274       -4.54746713360065        0.08857360873862
H           68.83812304261018       -2.65129342423515       -0.11092848491201
H           74.45089308813633        5.22318476449455        1.24124338989257
H           74.22127386574228        8.92612287441311        1.28215775648712
H           75.71020269769470        8.03080178565777        0.95696536677521
H           74.62507070293077        7.48903404832085        2.24135020211484
H           73.26902231315727        8.70788955749638       -0.95136734486974
H           71.48384813456097        8.41656192376024       -2.66850691371914
H           71.13881321600260        6.80453800145448       -3.32452868837046
H           72.64096813033161        7.63373298840122       -3.74967706929279
H           72.13390632103837        4.81685998838119       -2.33582420765717
