228
 energy: -390.662253596949 gnorm: 0.000646304047 xtb: 6.5.1 (b24c23e)
Ni          47.17709477929255        0.00226234214525        0.02096423551939
C           43.78330155071328       -0.01716575300972        0.09123323055760
C           44.43953191026810       -1.22934350161557        0.13960067483504
C           43.76707810808823       -2.48789257123822        0.24737313040234
C           44.72193997489511       -3.44484268104319        0.17945637298598
C           45.97649375666568       -2.76926943060716        0.02113088252499
N           45.79605625646095       -1.40861690694319        0.03240664034873
C           47.18969509305581       -3.42145256286505       -0.15593903342841
C           48.39713887105985       -2.74324469180378       -0.25473835301210
C           49.65371062521420       -3.38949977166362       -0.48284354305904
C           50.60401855807426       -2.42566754998385       -0.42932493571339
N           48.57392237812238       -1.38576977809318       -0.10737743895178
C           49.92690058376569       -1.19355373339660       -0.17821394024076
C           50.59164458963292        0.02063754775666        0.01031555088300
C           49.91578360632946        1.23000924391691        0.18992963566410
C           50.58489057033356        2.47826691403565        0.37360488113363
C           49.62660344221867        3.43502643872182        0.39782600974227
C           48.37060245660550        2.76574896138294        0.24563044083315
C           47.15499791920954        3.42726454682988        0.13983646103049
C           47.14489837617125        4.91136454248862        0.18539808762649
C           46.78332487635803        5.64765999730689       -0.94271671572332
C           46.77480485682730        7.03400003071755       -0.90040617183766
C           47.12156697056665        7.69880591571819        0.26785949763418
C           47.47957720294080        6.97185256077725        1.39507097904826
C           47.49387410411016        5.58550405886474        1.35557335134573
C           45.94543793768798        2.75988107262429        0.00320996840051
C           44.67465086588984        3.42067461804186       -0.06165783011801
C           43.72889076513303        2.45265543136720       -0.06478132043405
C           44.42168531876555        1.20204592485348       -0.00057988912066
N           45.77997739562598        1.39720933170592        0.02202252473803
N           48.55973094994155        1.40608814221068        0.13662089239002
C           47.19584929174465       -4.90224932951640       -0.23929176745768
C           46.52217613213681       -5.55421154175604       -1.27279049531198
C           46.53058484487484       -6.93880210788523       -1.35074061755817
C           47.20548950927338       -7.68771120833116       -0.39631584897819
C           47.87534234258133       -7.04614322774661        0.63666427753997
C           47.87408570599190       -5.66157147238368        0.71495123537663
H           42.70004264210740       -0.02318611800749        0.12465551740822
H           42.70065543947177       -2.60317425372352        0.35916372892554
H           44.60177659061955       -4.51458199425714        0.23504472771019
H           49.78144870443777       -4.44384204584038       -0.66605063415605
H           51.66973995491709       -2.52533984099614       -0.55511118429401
H           51.65262385747425        2.59483112868020        0.46199638138082
H           49.74988514951863        4.50082782003085        0.49922537914880
H           46.52124917713284        5.12920554011640       -1.85827740036208
H           46.49654406562546        7.59738214620823       -1.78418754723240
H           47.11245610905267        8.78240941321585        0.30002940008883
H           47.74833528769697        7.48667015604394        2.31082759470716
H           47.76340421547938        5.01828221119786        2.23952702218571
H           44.53802309286110        4.48967433405252       -0.08393248833108
H           42.65584798440418        2.55551227065128       -0.09732910749427
H           46.00395758876268       -4.97000674666173       -2.02511261605708
H           46.00825611002106       -7.43504914528240       -2.16119841609337
H           47.20940697242091       -8.77008574780844       -0.45742973083623
H           48.40127031650244       -7.62681983901142        1.38643763480521
H           48.38835229852239       -5.16221933683160        1.52859691996135
Ni          79.74398851661657        0.07016139740708        0.10019955070394
C           83.12110971178646        0.10735610805604        0.43232923037577
C           82.45729434676250        1.31635310949015        0.42520985748927
C           83.11617696703551        2.57945273194543        0.56035710781684
C           82.16694276932071        3.53098714100652        0.39996009761296
C           80.92749668041461        2.84732219930511        0.17301982144485
N           81.11178329506845        1.48816987864852        0.21500579324306
C           79.71882277440706        3.49367092953774       -0.05133391749865
C           78.51428691091404        2.81273919992399       -0.16204037747809
C           77.25462927602447        3.45754629720011       -0.37647985006931
C           76.30678300388152        2.49139974732426       -0.32056871184330
N           78.34171283989896        1.45300062185004       -0.02696727847158
C           76.98941044743496        1.25760087580910       -0.09415872798272
C           76.33050933130571        0.03254678335205        0.03977407559073
C           77.01223675493547       -1.18333746624314        0.13044213623842
C           76.34860208554046       -2.44681850954202        0.18349462035792
C           77.31212425974640       -3.39688231398163        0.12826750663341
C           78.56661763406356       -2.71008762377923        0.07311384684533
C           79.79298828593389       -3.35356745488305       -0.01968535915446
C           79.81880891946098       -4.83586886780271       -0.10116681936338
C           80.27115422757998       -5.46750520951293       -1.25956807698548
C           80.29585755201762       -6.85212968766408       -1.33759043578179
C           79.87569868099818       -7.61957244302401       -0.25983227963044
C           79.42870626775451       -6.99717464582139        0.89780090394145
C           79.39795848978196       -5.61290966477014        0.97816291101626
C           81.00211335066888       -2.67170490743689       -0.00330570022050
C           82.27990923988092       -3.32198801241099        0.01159093000122
C           83.21091131184761       -2.35339954231885        0.17498561217158
C           82.50301984478094       -1.11171162791229        0.24645757253644
N           81.15100519967564       -1.31322221033302        0.12546509806512
N           78.37019041829916       -1.34727763178731        0.08386326900047
C           79.71527223507117        4.97415265163891       -0.14465947487422
C           80.40382800819162        5.61578856235074       -1.17471154202127
C           80.40188687466582        6.99976793375684       -1.26267116909062
C           79.71973514396203        7.75822300898930       -0.32088917114234
C           79.03653283952235        7.12687052862829        0.70953916081690
C           79.03092207514621        5.74281243451548        0.79750564345801
H           84.19693212593462        0.11804540551148        0.56301821435129
H           84.17150423373961        2.70127606398230        0.74605350074487
H           82.27984519372485        4.60223895766279        0.44015488060476
H           77.12229407747080        4.51314187876841       -0.54872915159820
H           75.23986209681411        2.58999033273789       -0.43681302540628
H           75.28036177950921       -2.57671829402744        0.24017111742859
H           77.19342224030362       -4.46796052025156        0.12156950930091
H           80.59195978542101       -4.86840540540806       -2.10452915169218
H           80.64469751172841       -7.33366554565299       -2.24443706143410
H           79.89763442457887       -8.70172120225557       -0.32143755599350
H           79.10330578706073       -7.59236920104700        1.74383313912809
H           79.06000197627682       -5.12779126560373        1.88711018315897
H           82.42869127869440       -4.38636861072588       -0.07154285231573
H           84.28278924637772       -2.45025921438417        0.24388986239388
H           80.92954099971682        5.02374950943959       -1.91562623520287
H           80.93545140177085        7.48818716167228       -2.07051942918280
H           79.72140580796587        8.84015299506932       -0.38945015355879
H           78.50603376885294        7.71496049493894        1.45027049701518
H           78.50709037635255        5.25161167920975        1.60999497677199
C           52.00094198907512        0.02630565207310        0.00966469861037
C           53.21722447056796        0.02707017775531        0.01082123947556
C           62.85279201618537        0.03428579042397        0.05152954226326
C           64.06918113321056        0.03852991439401        0.06025217007406
C           73.70491536227475        0.02144979348787        0.04494826860400
C           74.92125284696543        0.02261175243316        0.04223922904823
Ni          58.03581470198495        0.03046836806165        0.03261959759005
C           54.62563451604632        0.02817527717723        0.01502610217617
C           55.30029875489019       -1.17318796211391        0.25143328405937
C           54.64415236825470       -2.40556968767323        0.54992672045426
C           55.60091612231783       -3.36603909649180        0.55653303993164
C           56.83965139324663       -2.71656528444125        0.25519079307235
N           56.64989041806774       -1.35981808440013        0.12397411327820
C           58.03791201846267       -3.38405207599534        0.03340062163866
C           59.23536014873784       -2.71565547567369       -0.18834590951842
C           60.47517186589703       -3.36367730774938       -0.48880282089252
C           61.43067550459216       -2.40198653571217       -0.48286180147719
N           59.42337887345207       -1.35837947994531       -0.05838294434460
C           60.77233759582037       -1.17012872571404       -0.18674078947020
C           61.44518539425863        0.03301246958731        0.04585854972244
C           60.76863385841429        1.23490224902238        0.27446848532691
C           61.42292694677394        2.46695993832723        0.57855641435587
C           60.46585812908039        3.42711779757879        0.58082462798313
C           59.22933293137033        2.77807946066569        0.26917432534366
C           58.03291070665529        3.44510973674827        0.03828570131411
C           58.02889162845505        4.92659955579437        0.04529653977847
C           57.22471828897921        5.62607846699260        0.94650324075960
C           57.22272865477919        7.01265985155930        0.95417784588179
C           58.01743271763466        7.71692808108085        0.05981518137769
C           58.81801838303702        7.02841348777890       -0.84153195891319
C           58.82749964357589        5.64180104482035       -0.84837654589872
C           56.83831994568079        2.77596716961246       -0.19842048254555
C           55.60240244550634        3.42384792250804       -0.51426794876807
C           54.64714904676779        2.46189221710462       -0.51998505127864
C           55.30131435729236        1.23028269046209       -0.21451484390897
N           56.64906305155696        1.41886144611419       -0.07116804713180
N           59.42046708035257        1.42135948065786        0.13690591974460
C           58.03816725799966       -4.86565852358773        0.03074745421454
C           57.24941341564653       -5.57064689505938       -0.87964033369667
C           57.25478111151831       -6.95725614988778       -0.88500641537891
C           58.04125510062521       -7.65598073763235        0.02091525104241
C           58.82571722372600       -6.96191300885941        0.93209622408035
C           58.82800275673664       -5.57523825693852        0.93659354783016
H           53.58670405094672       -2.50919502056229        0.73118478454184
H           55.48790804008348       -4.42007584874376        0.75115613322379
H           60.58989716892508       -4.41770606737827       -0.68240610387657
H           62.48853189821518       -2.50409146663060       -0.66304166330698
H           62.47929565025056        2.57029118542338        0.76648555631629
H           60.57752688497513        4.48074572859750        0.77843242259752
H           56.61288533231911        5.07730890163493        1.65385700088912
H           56.59819904272550        7.54574535742149        1.66245530060908
H           58.01270455079460        8.80100763012777        0.06520615868136
H           59.43795220753193        7.57398530673903       -1.54433629313857
H           59.44357859195072        5.10571359194083       -1.56172110294123
H           55.49003466699610        4.47772588279383       -0.71004848502752
H           53.59210711020663        2.56454511280906       -0.71489435193306
H           56.64425520253234       -5.02619216320155       -1.59604233945080
H           56.64284399417170       -7.49479341856852       -1.60090551355672
H           58.04296862929398       -8.74008781566896        0.01666899599445
H           59.43913542307021       -7.50307436644020        1.64399646263479
H           59.43192784269943       -5.03482643225751        1.65704581108986
Ni          68.88617803308863        0.03097828087721        0.06647734768568
C           65.47678769438755        0.03743111893450        0.06530662775087
C           66.14879523766534       -1.17570707745418        0.24228244849108
C           65.49006215968311       -2.41831787705147        0.48833290193047
C           66.44475718141311       -3.38018351894536        0.45209057998185
C           67.68404754579591       -2.72123360428583        0.17415217344929
N           67.49699847655074       -1.35946873879339        0.10213034575556
C           68.87910286535863       -3.38025860411135       -0.08478168364610
C           70.07522062193316       -2.70391186652535       -0.29103858273688
C           71.30892853015530       -3.34004576582558       -0.63771732317842
C           72.26680881161940       -2.38153156642662       -0.59981416116657
N           70.26846262029616       -1.35468628114777       -0.10106909288747
C           71.61676526303556       -1.16370870436287       -0.23593474403011
C           72.29653268100547        0.02366296617798        0.05121983140896
C           71.62546656239091        1.21466673204846        0.34424892251937
C           72.28504294249564        2.42961140682617        0.70089354310390
C           71.33111736305720        3.39160896469158        0.75225735543054
C           70.09067037103333        2.76092573882656        0.41974270742517
C           68.89430401538661        3.44148058150576        0.22953611213939
C           68.89781783555547        4.92146910342813        0.29868527013144
C           68.10773122428921        5.58813883427221        1.23642138123431
C           68.11375798279666        6.97333499147777        1.29989128039934
C           68.90237932461885        7.70900346492661        0.42565691693996
C           69.68898841313448        7.05325582352342       -0.51172345752168
C           69.69050274319220        5.66802046772268       -0.57441466760308
C           67.69528223256110        2.78788279718591       -0.02570035766229
C           66.45813096164377        3.45332021646900       -0.29775548578244
C           65.50017082753791        2.49512932364213       -0.34274917941920
C           66.15415329157169        1.24837337601613       -0.10523545872733
N           67.50314292487586        1.42639275523555        0.03731895233785
N           70.27661321829534        1.41137591957234        0.22459590108073
C           68.88004554483416       -4.86063796154763       -0.14290737955840
C           68.08222201022721       -5.53481148120335       -1.06854959249298
C           68.08878340240288       -6.92045837037402       -1.12139647492406
C           68.88548358730094       -7.64896288086726       -0.24846737856851
C           69.67948454036815       -6.98568019934245        0.67728557162946
C           69.68059516317631       -5.60004557683889        0.72915647358169
H           64.43268571084231       -2.52707686169932        0.66737207902437
H           66.32967068063343       -4.44124667420797        0.60220428122721
H           71.41775373206538       -4.38404075505966       -0.88238614691914
H           73.32128584685717       -2.47738145889311       -0.80073485931785
H           73.34255497856620        2.52193234597002        0.88776723961722
H           71.44756387880356        4.43489092859049        0.99647055985377
H           67.50068523539373        5.01470215329443        1.92812787860391
H           67.50021618644463        7.48066538255818        2.03616416253887
H           68.90393192658509        8.79200466768900        0.47471749644140
H           70.30414923018925        7.62341985512827       -1.19901218112479
H           70.29567136607668        5.15779806623344       -1.31555178223340
H           66.34671901558335        4.51593450410601       -0.43941474309704
H           64.44320690734051        2.60894993316601       -0.52104743516206
H           67.46906057040090       -4.96719280412124       -1.75967915929717
H           67.46946082124730       -7.43394689539447       -1.84853190787102
H           68.88772988927795       -8.73228964921260       -0.28972320956967
H           70.30100746902338       -7.55014319028492        1.36358910972851
H           70.29206616971084       -5.08349123347656        1.46073102501639
