308
 energy: -537.343268091742 gnorm: 0.000509633069 xtb: 6.5.1 (b24c23e)
C           57.93971135987298        0.08274188127390       -0.01201867346465
C           58.55206713367885        1.22074790822364       -0.52094103451154
C           57.90335066879067        2.36446106720631       -1.06533020191726
C           58.86746544065962        3.25911683064581       -1.43621793610395
C           60.13658091080460        2.69580505494920       -1.11944161772211
N           59.89539190987666        1.46297073094404       -0.58207634030359
C           61.40057419640235        3.26355799936622       -1.31719714064459
C           61.43614776267589        4.63256928031925       -1.88641239454681
C           62.08591927766306        4.87873460164645       -3.09662266763166
C           62.11556695483081        6.15401079069589       -3.63885829211702
C           61.49611316966359        7.20537798709378       -2.96704807278971
O           61.50210962659902        8.47020359126640       -3.46122231782463
C           60.84712588891352        6.97446820466939       -1.75561775420407
C           60.81703248912479        5.69665291384337       -1.22575742491847
C           62.61318865947397        2.63541369689512       -1.02015525645076
C           63.91123661249120        3.27018885804037       -1.16255829182326
C           64.82886385063951        2.35161628004653       -0.79554577716290
N           62.76351196736079        1.36595695435806       -0.55262029257612
C           64.09029904019933        1.16135636923295       -0.42087517137906
C           64.72249712231753       -0.02839677877201       -0.00856555343603
C           64.08364766440621       -1.20852002068069        0.41480861839999
C           64.72401506621354       -2.41403388447017        0.80678001924747
C           63.75574756044060       -3.30350503111502        1.18259682733597
C           62.49296121247220       -2.66452758090855        1.03924241123342
N           62.74274251493916       -1.40542250614462        0.56034328924201
C           61.23105004732097       -3.20395460228339        1.31212929370807
C           61.19554578059064       -4.57455667081264        1.87597343198952
C           61.82590008605858       -4.86139161667105        3.08970493449232
C           61.78874183488173       -6.13683953715487        3.62439148377758
C           61.12150160267240       -7.15305476299314        2.94279650755226
O           61.10664026288948       -8.39376111700867        3.49432681057157
C           60.49300192570832       -6.88384913316907        1.72920997387900
C           60.52946773149556       -5.60113528860635        1.20511966751188
C           60.01736041827066       -2.54347141436219        1.09108614165769
C           58.71282958026011       -3.09140247120464        1.42863808518411
C           57.80206475329847       -2.17203495622261        1.04980465819179
C           58.54938596450033       -1.05736880097852        0.49519446329318
N           59.87998684690977       -1.31128660156025        0.54647371173121
H           56.85435852848707        0.09531446867829       -0.01324294476789
H           56.83477910225903        2.47324342895410       -1.16151078018480
H           58.71809090152978        4.22191317355423       -1.89739250410993
H           60.61961188317330        0.82141877511320       -0.27688535464717
H           62.55679573442609        4.05888530273778       -3.62750404726771
H           62.61622651193935        6.33729563502900       -4.58352014775556
H           61.98261829547056        8.51895976714964       -4.29870358912644
H           60.37442789167739        7.80219089314658       -1.24146951045772
H           60.32501860046614        5.52152725759239       -0.27540123504852
H           64.07602556160472        4.28594960411214       -1.48380761316144
H           65.90239359001114        2.44820401270254       -0.76447879388236
H           65.79039701881334       -2.57226713451542        0.79504916955244
H           63.89999231378885       -4.31707745070065        1.51954601877333
H           62.02233719513860       -0.72408272154344        0.34487493221791
H           62.33190749914641       -4.06818084434792        3.62879699949359
H           62.26929170942597       -6.35914277777433        4.56915851862510
H           60.61357511983842       -9.01775535855519        2.94489461116909
H           59.97919913004503       -7.67882525523436        1.19936266029563
H           60.05147048531764       -5.39675105357516        0.25352770028752
H           58.54172237433159       -4.04408184236721        1.90363317266936
H           56.72724497736389       -2.21123931903143        1.13436672028296
C          118.49532060274616       -0.00581813743522        0.07772001129553
C          117.87968978051568       -1.05829012267446        0.74267563652702
C          118.52549134281597       -2.14206488585876        1.40127962542457
C          117.55865359188319       -2.95040827334656        1.92956011927823
C          116.29048788770194       -2.38097712214752        1.61964239927395
N          116.53534665310856       -1.24832367352127        0.89585490369508
C          115.02463647491544       -2.87292776035517        1.95762845071562
C          114.98666892827274       -4.10798454631736        2.77826217296792
C          114.36348019812581       -5.26061977194877        2.29868619804494
C          114.33021126568845       -6.41783951465410        3.06109018811793
C          114.91944208831829       -6.43145534075438        4.32322203557534
O          114.90809953909022       -7.54233848247417        5.10423197667308
C          115.54283430428183       -5.28650285188763        4.81556286475640
C          115.57656853557221       -4.13821271049532        4.04442217726998
C          113.81314749733212       -2.28535991313133        1.58301474976523
C          112.51137198492226       -2.77872483789618        1.99578603191517
C          111.59695599330486       -1.95587410920341        1.44195041629737
N          113.66758993346448       -1.17383145824653        0.81124124231854
C          112.34079448421515       -0.95474647805402        0.70197353394764
C          111.71257640332394        0.08554302644964       -0.01006671591056
C          112.35310970628571        1.12168037058858       -0.71325796090534
C          111.71454870924784        2.14530799133414       -1.46295147835577
C          112.68564404194058        2.94706070612390       -1.99546810362839
C          113.94905158826977        2.44364729540177       -1.57777535336214
N          113.69589585211824        1.33611441028192       -0.81197276101826
C          115.21402842143523        2.95010358560343       -1.89543506600787
C          115.25751592193367        4.17839934491847       -2.72463734092523
C          114.65737568578862        5.36054218878920       -2.28336054163665
C          114.70249806705002        6.50924591768029       -3.05331864521099
C          115.34799183742126        6.48908273991339       -4.28835402534730
O          115.37123095855955        7.63305489282280       -5.01960628568896
C          115.94731969809330        5.31700350903541       -4.74375046244253
C          115.90254401174640        4.17309155447918       -3.96231138594044
C          116.42608184042733        2.38038648703044       -1.48927206130363
C          117.73392453327978        2.95127734857439       -1.77200725880629
C          118.64149368671082        2.11968887836084       -1.22169055583884
C          117.88931707011726        1.04836121604283       -0.59314181326890
N          116.55897008844367        1.24286754512870       -0.76692326746846
H          119.58063829903710       -0.01570338545828        0.09006406509754
H          119.59416620674871       -2.27759198932327        1.45135141614832
H          117.70531181278911       -3.86675064204174        2.47801030126351
H          115.81285085940524       -0.64135150130417        0.52321641048948
H          113.91627007750702       -5.25580544698177        1.31093304439911
H          113.84972391593989       -7.31251931375685        2.67990157466024
H          114.44694647059535       -8.27304689748979        4.67071856080836
H          115.99260851724874       -5.30980049608091        5.80049028697503
H          116.04842838417318       -3.24337456410469        4.43503709499377
H          112.34153798388010       -3.62947345022258        2.63565263073406
H          110.52223264066579       -1.99479800987276        1.52032133883358
H          110.64724797927943        2.24211322358520       -1.58069026075158
H          112.54261072104015        3.80533734218418       -2.63150850938432
H          114.41551444356600        0.75682991523441       -0.39214392646191
H          114.16913126724489        5.38251274708922       -1.31539893306195
H          114.24494095989431        7.42868839203480       -2.70953432329568
H          115.84855225900580        7.50996945332295       -5.85108297234892
H          116.44491422861509        5.30423671720894       -5.70758399888572
H          116.35766672943866        3.25800128124251       -4.32458301188995
H          117.90940299595530        3.87173490822159       -2.30534425444594
H          119.71721229900470        2.20178119887195       -1.21649305141223
C           67.35208541745430       -0.07050467901974       -0.01835720975748
C           66.13047076683901       -0.05197819798220       -0.01382965541997
C           68.70300008110284       -0.08139934788242       -0.02128690859673
C           69.92484255092447       -0.08283641862754       -0.02173583402878
C           80.81158841779744       -0.02045483826570       -0.01393669277848
C           79.58876381808949       -0.02810840355395       -0.02099629465832
C           82.15983739581999       -0.01833723107115       -0.00753438272529
C           83.38272835472927       -0.01211934517014       -0.00173944323968
C           94.26792522314881        0.02970520293848       -0.02337168274429
C           93.04505007434662        0.02640479805078       -0.02934428629857
C           95.61628450203571        0.02979773469282       -0.01593309245389
C           96.83913565869435        0.03406022711914       -0.00716596583675
C          107.72964464515218        0.10867120496526       -0.04334334193091
C          106.50821827105489        0.10094057563255       -0.04561068818636
C          109.08173077091530        0.10687157497666       -0.03699452086850
C          110.30302177986471        0.10035246721559       -0.02660636439644
C           71.33218466745498       -0.08408669518394       -0.01175794846232
C           71.96163806882838       -1.20209411523131       -0.59048533986981
C           71.31472096909157       -2.30087265030929       -1.21291909552676
C           72.28155410653149       -3.14409168271787       -1.68856574589613
C           73.54831528137562       -2.58886610634134       -1.36067227704156
N           73.30380200621707       -1.41528038661360       -0.69868409957113
C           74.80966965726505       -3.10710908359893       -1.68088972951598
C           74.82881350276952       -4.40347880097896       -2.40271493968630
C           75.39780565682524       -4.49635903656647       -3.67345715122552
C           75.41525584503979       -5.70280103315823       -4.35576754418100
C           74.86524016903687       -6.83851569983284       -3.76586536918411
O           74.86326372832468       -8.04063492620528       -4.39725282308242
C           74.29662414153429       -6.76037482684260       -2.49584212905303
C           74.27768292231490       -5.55010619431847       -1.82545750495445
C           76.03198234558477       -2.50402830055849       -1.37930726209220
C           77.32238784234525       -3.10316633168668       -1.66880791315335
C           78.25549117034581       -2.24215817799725       -1.21218739406137
N           76.20332625928863       -1.30872652983371       -0.74885683322408
C           77.53393008702608       -1.12429923023726       -0.63745004107425
C           78.18450898153236       -0.02973796720836       -0.03204807173654
C           77.55377502679305        1.06830224485801        0.58488628714303
C           78.20030064876433        2.14377682549749        1.24659776206826
C           77.23343027031186        2.98531063204373        1.72539582761337
C           75.96755716903316        2.45276720130065        1.35898855275402
N           76.21255046191096        1.29055964329734        0.67671984767785
C           74.70602779422383        2.98600827774150        1.65104919262496
C           74.68623892409133        4.27549088932853        2.38411670388114
C           75.28227484078106        5.41619898481850        1.84042934225126
C           75.26701084122044        6.61864948890504        2.52473919663116
C           74.65690445434534        6.69476760876850        3.77552075029510
O           74.66520947882869        7.88860703224388        4.42225799385728
C           74.06069281605913        5.56520877148936        4.33155529764590
C           74.07468218953460        4.36688241500638        3.63520727431332
C           73.48376064569014        2.40101477531588        1.31295908226994
C           72.19478641309712        3.02142589168999        1.56153970186941
C           71.26169047695238        2.16519195763566        1.09621092773650
C           71.98177681376929        1.02770136078318        0.55919374650364
N           73.31294349816240        1.20092022559605        0.69377480265833
H           70.24592293386333       -2.41771266352359       -1.29205871787346
H           72.13143958264254       -4.06318354816679       -2.23102308198108
H           74.02439687348442       -0.78945700137810       -0.35451092972764
H           75.81489249070530       -3.61038415081058       -4.13905919753962
H           75.85323906465696       -5.76708983719837       -5.34607381943098
H           75.28764057071290       -7.98421072931073       -5.26388092046558
H           73.87696807247602       -7.65230558444645       -2.04727428611490
H           73.84840548509206       -5.49380750706201       -0.83131190884796
H           77.47341552495786       -4.06093995081853       -2.13982859232144
H           79.32936556350889       -2.33591226264650       -1.24036779676386
H           79.26857192735764        2.24794230571705        1.34743886271622
H           77.38312174503402        3.88888867263144        2.29339523501606
H           75.49226581349352        0.68016511148514        0.30531512899011
H           75.74435284254740        5.36203464942228        0.86095851794386
H           75.72201945537120        7.50595206096754        2.10219473647678
H           74.20796036426479        7.83204706578595        5.27204338102166
H           73.59029069522779        5.62780712055035        5.30699170880387
H           73.62201437176905        3.48520346870819        4.07501779863101
H           72.04565127524478        3.98872299236534        2.01333923516491
H           70.18880129444508        2.27281969957358        1.09776828658603
C           84.78689630740371       -0.01394269600127        0.00679815797723
C           85.41380806568782       -1.11145572797325       -0.61546569663600
C           84.76308083050868       -2.18669138165679       -1.27300646600778
C           85.72713537773456       -3.02559680859309       -1.76254390298366
C           86.99516520970617       -2.49046683011700       -1.40869616190116
N           86.75463608882248       -1.33100193382020       -0.72044210449815
C           88.25474919371537       -3.01661217095229       -1.72334621498052
C           88.26710729263040       -4.30581044771615       -2.45760594326134
C           88.85078225830590       -4.39551165589354       -3.72187274679824
C           88.85996337226925       -5.59613291650668       -4.41456680195150
C           88.28693936115960       -6.72921552281971       -3.84169030235510
O           88.27596387487111       -7.92554121034291       -4.48385036901902
C           87.70368898994626       -6.65435446683629       -2.57810668730325
C           87.69291879236120       -5.44980273274925       -1.89750117208306
C           89.47950947549047       -2.42798839668666       -1.40395560516608
C           90.76735724356713       -3.03423527558411       -1.68925863350408
C           91.70366753386369       -2.18122411658658       -1.22403211571917
N           89.65519710625210       -1.23804137131312       -0.76448219473243
C           90.98643161684322       -1.06192708288154       -0.64692530026769
C           91.64079715009296        0.02803173506876       -0.03722193100122
C           91.01389003554790        1.12338798514591        0.58879980378425
C           91.66478624630888        2.19585267445527        1.25078057628494
C           90.70087356627054        3.03169054450765        1.74575454525211
C           89.43270475310814        2.49786498184728        1.39035336431250
N           89.67308231871708        1.34198549371305        0.69597237120779
C           88.17311979046400        3.02255672202599        1.70720383046043
C           88.15999016140059        4.30588251737197        2.45167680676913
C           88.73465539880033        5.45485776045888        1.90251417002384
C           88.72316146917322        6.65315735927639        2.59410091702324
C           88.13880491865984        6.71652779149929        3.85783646373984
O           88.14933067541993        7.90686246412157        4.51095904037747
C           87.56520756619597        5.57830628490452        4.41981407286972
C           87.57491849900994        4.38413905472034        3.71610644043410
C           86.94838676948198        2.43699469534930        1.38202970497410
C           85.66080006857747        3.04474455168332        1.66529625711720
C           84.72436922519688        2.19504150331720        1.19426179787043
C           85.44134256573228        1.07567938729779        0.61694738166144
N           86.77254424165355        1.24939034466583        0.73838123538818
H           83.69412104838641       -2.29294047430383       -1.36369812833873
H           85.57401716724512       -3.92859161835846       -2.33056963056380
H           87.47671589280223       -0.72035310351724       -0.35298159277058
H           89.28547789398539       -3.51132213193229       -4.17457049937380
H           89.30908962064544       -5.65784438581265       -5.40003158910762
H           88.71059110203029       -7.86707039937141       -5.34528831810995
H           87.26612308823543       -7.54422131972289       -2.14271890869235
H           87.25163367515329       -5.39606401501267       -0.90848094396726
H           90.91450133504711       -3.99080352693932       -2.16393474388663
H           92.77705092116669       -2.28160862448162       -1.24753754242537
H           92.73379576145938        2.30220200466923        1.34080280396689
H           90.85418628630981        3.93184467091178        2.31821239445341
H           88.95083586369387        0.73246253138111        0.32696596413770
H           89.17668658872584        5.41020122676521        0.91335515708109
H           89.16108576630207        7.54695678472209        2.16723501085550
H           87.71106600450418        7.84141710582320        5.36999708796589
H           87.11526429143407        5.63100736047897        5.40545478627540
H           87.13953203919505        3.49590751362746        4.16015319002206
H           85.51415261987333        4.00026041846413        2.14226182673223
H           83.65111347596385        2.29754678581214        1.21429396027375
C           98.24347368635419        0.03247696109762        0.00561657122378
C           98.87344548664360       -1.06790255889488       -0.60770460276427
C           98.22649906301778       -2.14908635423467       -1.25957933670680
C           99.19315439544023       -2.99317536849247       -1.73415441073367
C          100.45952904744911       -2.45544892484548       -1.37667477846062
N          100.21482432892310       -1.28866681142799       -0.70228578752106
C          101.72036541598537       -2.98736957736202       -1.67391107099812
C          101.73606823122311       -4.28608856733428       -2.39094819391503
C          102.33133179355475       -4.39389721425633       -3.64841494316978
C          102.34079197270438       -5.60271036700919       -4.32669530054216
C          101.75631884354333       -6.72590366074721       -3.74599128628813
O          101.74467887922484       -7.92962183743042       -4.37434269756508
C          101.16193517071682       -6.63317544116221       -2.48880934592933
C          101.15106043542438       -5.42056377977048       -1.82267900555026
C          102.94417679106513       -2.39518481489018       -1.35391145287691
C          104.23309150286512       -3.00967931239797       -1.61816782263657
C          105.16796177187614       -2.14753870776717       -1.16772544506387
N          103.11705842240983       -1.19306512565713       -0.73996484204415
C          104.44933203580082       -1.01361987420061       -0.62113082256064
C          105.09942599285721        0.09628074202014       -0.04861101667781
C          104.47073312972947        1.20569716853474        0.54617467114772
C          105.11860441524450        2.29911914932965        1.17764952295985
C          104.15264044782765        3.13378961732100        1.66918053948904
C          102.88514801116989        2.57944726470976        1.34174532937510
N          103.12857294289213        1.41432983252691        0.66466850712507
C          101.62476837747931        3.09338081673584        1.67143427615018
C          101.60664333500175        4.38005890445291        2.41056246287740
C          102.15261580239424        5.53595102107360        1.84733333627468
C          102.13394945084859        6.73636714001218        2.53531526781059
C          101.57123989330060        6.79476633599677        3.80903919908088
O          101.57340996976303        7.98756343480343        4.45773599562343
C          101.02645725374272        5.64940642005390        4.38502819142164
C          101.04310709493051        4.45317836041267        3.68504031240098
C          100.40135300066962        2.49502993236670        1.36463356392756
C           99.11246373643587        3.09569261862920        1.65798486460568
C           98.17721005280016        2.24116429557259        1.19367287916254
C           98.89601118794971        1.12477041885873        0.61271202382897
N          100.22718153500055        1.30501890829218        0.72558600440023
H           97.15806449382806       -2.25563640343308       -1.35607419634566
H           99.04318053749766       -3.90161073642338       -2.29428527903761
H          100.93487727050056       -0.67463764292927       -0.33652833655788
H          102.77461640081025       -3.51733078826102       -4.10756673496294
H          102.79859552215325       -5.67841011943753       -5.30718256171620
H          102.18643464010461       -7.88307665393764       -5.23287322990010
H          100.71551254083880       -7.51549794958280       -2.04711564031523
H          100.70074576390682       -5.35277902730974       -0.83860038515456
H          104.38118885803647       -3.97702906641656       -2.07019017191431
H          106.24131297582161       -2.24945994919863       -1.18330162563672
H          106.18753136193359        2.41793862853849        1.25175818627252
H          104.30357246584103        4.04673576588966        2.22168189137942
H          102.40801914218511        0.78968105106255        0.31833820300301
H          102.57745247377969        5.49498285721978        0.85051851479962
H          102.54941305916070        7.63568354688191        2.09773888977315
H          101.15370405678856        7.91754333065784        5.32563140949516
H          100.59313038172237        5.69831828727061        5.37826430877134
H          100.62961995017437        3.55957231602001        4.13914158456131
H           98.96424834804652        4.05043335176802        2.13600318045126
H           97.10358957241144        2.33787226994158        1.22149917664363
