142
 energy: -221.043624325327 gnorm: 0.000400874991 xtb: 6.5.1 (b24c23e)
Zn          14.18743975265812        0.01748967236870       -0.02504722978346
C           10.79048364775267        0.18125918235460       -0.30335512098334
C           11.43940812190339        1.35549525242263        0.05995250161084
C           10.78883409838204        2.60243028053674        0.35149829323665
C           11.76030369932373        3.48943260402690        0.68315371829835
C           13.01814292901940        2.79699605464975        0.58966826754410
N           12.78766343209894        1.50548408956132        0.21469185213097
C           14.27319918443452        3.35093855825387        0.86704368310953
C           15.49566560431246        2.67428438596609        0.80632931670766
C           16.78330196664829        3.26755717963231        1.03992490286770
C           17.71174971485209        2.29440442941396        0.85640136096247
N           15.66730922145757        1.35541446248151        0.47956212643549
C           17.00268407402278        1.09903975589695        0.50491371635885
C           17.61242953929196       -0.13790270979865        0.21373422920227
C           16.93923488614202       -1.32197574705299       -0.14785018805846
C           17.58363627277718       -2.56647150326789       -0.44979091550963
C           16.60500345515767       -3.45702914528271       -0.75311849704583
C           15.35109000783371       -2.76518368055168       -0.63559889215897
C           14.09443081249727       -3.32459541078613       -0.88842807856101
C           14.05625135453557       -4.76465973638457       -1.25218727114425
C           13.60919473416046       -5.16167839589263       -2.51040980076211
C           13.58018960565389       -6.50916867928224       -2.85789686154712
C           13.08735141240138       -6.92544625769004       -4.21774832692055
C           13.99421011520633       -7.46062984288733       -1.93228488250659
C           14.43917778494413       -7.07974158029206       -0.66850098349350
C           14.89654967919574       -8.12247511022152        0.31572415002333
C           14.47168511129666       -5.73086804072978       -0.33585598219985
C           12.87165022480093       -2.64572764029595       -0.83226247610433
C           11.57869671508584       -3.23288704590721       -1.06476781168948
C           10.65745763442881       -2.24982946448521       -0.90543297279807
C           11.37437950880100       -1.05271874018731       -0.56479244296544
N           12.71153486104363       -1.32592661380739       -0.52536455322903
N           15.59269475745262       -1.46740981359534       -0.27109025251675
C           14.31309084509649        4.78380215549111        1.25821874282842
C           13.91771265838245        5.77161959460490        0.35744079408470
C           13.96269623683267        7.11411957431670        0.71711724014030
C           13.56672771051609        8.18051070381245       -0.26833095909942
C           14.40083724231422        7.46505083893411        1.99088062366934
C           14.79494074406524        6.49043710241624        2.90241561585064
C           15.24305219327264        6.87837219944677        4.28580883714134
C           14.75147914763243        5.15122910594731        2.52927701235269
H            9.70865202541292        0.23052838417994       -0.38079010228258
H            9.72301622968141        2.76507695167851        0.31118337033944
H           11.64072615152098        4.52044601221729        0.97577787853041
H           16.95345891785465        4.30048556327295        1.29790231396397
H           18.78374176215069        2.37301251196281        0.94409447380297
H           18.64965047606293       -2.72906060938399       -0.43383925132795
H           16.71971332039225       -4.48898164162871       -1.04362705047931
H           13.29944668846271       -4.41008239632916       -3.22843509914620
H           13.43694009553387       -7.92655694120713       -4.47011234538189
H           11.99506763873791       -6.93041675388637       -4.23212791863857
H           13.43128946194781       -6.22827413066089       -4.98258247056334
H           13.97175985677990       -8.51296285911953       -2.19652672892547
H           14.95027880516457       -7.71113666921473        1.32363609432295
H           14.21534131075424       -8.97432469826725        0.31854410878536
H           15.88907579223533       -8.48544265094545        0.03968548908830
H           14.80742508153378       -5.42132983128847        0.64792474816531
H           11.40320315205458       -4.26857785719505       -1.30857057173083
H            9.58501309166824       -2.31920050487130       -1.00083340826071
H           13.58980170359503        5.48621626815451       -0.63622911261383
H           13.07986838020769        9.01450361285968        0.23803667959647
H           12.88937786550299        7.78135659256646       -1.02337251547479
H           14.45472978650933        8.56457663103828       -0.77569066299505
H           14.43630119870065        8.51161864580986        2.27578137651787
H           14.38229877058984        6.91653155746110        4.95751309795898
H           15.71268735884839        7.86225897043294        4.28050422762325
H           15.95107209964261        6.15074835102935        4.68304883026209
H           15.04715573129090        4.38151397519850        3.23387876985223
Zn          30.21040676251652        0.02004408938751       -0.02502114356888
C           33.60749553492716        0.24329043713589       -0.25804681636270
C           32.95946770255254       -0.43431907142704       -1.28411955812340
C           33.61108350145484       -1.06329104106151       -2.39894587093124
C           32.64027059875701       -1.62963923879220       -3.15874600431757
C           31.38179308930781       -1.34561582353897       -2.52160141905735
N           31.61129868768964       -0.62465957400928       -1.38612703066100
C           30.12698041584499       -1.76536638929274       -2.97795770021279
C           28.90384913819670       -1.51726999301697       -2.34677152042284
C           27.61649169068302       -1.90518159110422       -2.85344789534731
C           26.68730219645505       -1.45702777430057       -1.97109842578717
N           28.73133124304685       -0.83628123514345       -1.17110800058338
C           27.39566044239681       -0.78786950699264       -0.91959353744616
C           26.78525422771422       -0.16456448057071        0.18747087865239
C           27.45789550144239        0.50972606383753        1.22613513699115
C           26.81292033331446        1.14303278225664        2.33887529525340
C           27.79106279844546        1.68121167393669        3.11115768165562
C           29.04525464604745        1.37834778297087        2.47865583327948
C           30.30142698928971        1.77853205545173        2.94543209877741
C           30.33959393749815        2.52887093242542        4.22730007973120
C           30.78410462499098        3.84879887796243        4.25715334367082
C           30.81506498418053        4.55771708980010        5.45451907948842
C           31.30608472900411        5.98033972799699        5.47462834016209
C           30.40546940648266        3.93271890800326        6.62717630752948
C           29.96285034124296        2.61208737246298        6.61431317372610
C           29.51010670596868        1.95616503212881        7.89102261073041
C           29.92829600617697        1.91699340590941        5.41141723376203
C           31.52442050281671        1.53771903566084        2.30862960994781
C           32.81687165720331        1.92643667458123        2.80772173802411
C           33.73868665669759        1.50067875243182        1.90804735309454
C           33.02267531364690        0.83861804264768        0.85348420272673
N           31.68545766334936        0.87527757551603        1.12672010282262
N           28.80434294722984        0.66903104338675        1.33223747149075
C           30.08863306117002       -2.54015745383355       -4.24517440491705
C           30.48835930816460       -1.95085609828128       -5.44369578550883
C           30.44620471689585       -2.67034605999539       -6.63292922682024
C           30.84741957533349       -2.02150695086117       -7.93028455268669
C           30.00634750762221       -3.99086957837171       -6.61634402445499
C           29.60765660753658       -4.59413278713454       -5.42752795605926
C           29.15792579214277       -6.03033961977538       -5.41608045588072
C           29.64837379092210       -3.86265084179127       -4.24522143642758
H           34.68932404202249        0.30457030082487       -0.32650194751551
H           34.67708420629854       -1.07045544259376       -2.56518357924743
H           32.76074750327526       -2.19926770783513       -4.06644597453649
H           27.44699978453959       -2.44019034653076       -3.77404392809338
H           25.61526219376407       -1.56188042274674       -2.02377622925328
H           25.74686241512952        1.17160327780598        2.49952336604303
H           27.67592375945215        2.24496104538160        4.02298196709111
H           31.09089661309821        4.32960028051957        3.33459609823083
H           30.95575801895838        6.50170621736556        6.36544561377389
H           32.39835657209201        5.99692367741684        5.47553912954126
H           30.96157919241977        6.51967868681213        4.59161522171989
H           30.42977683611042        4.47940790306646        7.56433898308655
H           29.46362261343159        0.87306130881457        7.77834961464284
H           30.18985897413133        2.19655044011501        8.70943982620337
H           28.51515503815255        2.31604957738748        8.16237559752531
H           29.59429504185416        0.88533488931777        5.38890995913324
H           32.99167797939423        2.44961376126514        3.73433828735301
H           34.81096433627113        1.61318612887297        1.94802529575094
H           30.81771441944673       -0.91747139227401       -5.44549505457886
H           31.33205795816858       -2.74169541907747       -8.59015008097884
H           31.52837607187958       -1.18852077884267       -7.75516592411370
H           29.96209992213073       -1.63644515625976       -8.44156376552617
H           29.97324204294630       -4.55620121626118       -7.54210821570169
H           30.01807029947321       -6.68720194306796       -5.26698864061588
H           28.68741423828847       -6.29770666740380       -6.36253028613330
H           28.45022270762739       -6.20934362878080       -4.60637330996019
H           29.34933104837022       -4.32451683474088       -3.31055350229886
C           22.81279492654262       -0.23621610552687        0.30882909832724
C           21.58468427447125       -0.23571077836788        0.31529310318457
C           20.23963358707757       -0.21807501406541        0.30283689273440
C           19.01669006393804       -0.18727373186056        0.26995848054884
C           24.15775627650114       -0.22532913388999        0.28429754696744
C           25.38091225604362       -0.20397552910187        0.24944184449968
