80
 energy: -140.234054800465 gnorm: 0.000661891530 xtb: 6.5.1 (b24c23e)
Zn           5.21925366164444       -0.00853482606461       -0.00951319146544
C            1.79280820270380       -0.05208430808456       -0.05201473927332
C            2.43866120029981       -0.92103322758284       -0.92483356047488
C            1.78845764450136       -1.82752913057547       -1.83335949754323
C            2.76535377489992       -2.49153913964402       -2.50067663516453
C            4.02338905355131       -1.99872831227291       -2.00727465273941
N            3.79032697845127       -1.05094610366452       -1.05495162700589
C            5.27846194530006       -2.42256608785074       -2.43104437632190
C            6.51108985678596       -1.97180144508504       -1.97519708514573
C            7.78815825864277       -2.43905820797451       -2.43795906479873
C            8.73563620176836       -1.75501259581252       -1.74716697190702
N            6.70574003318761       -1.01546519925488       -1.01527948470070
C            8.04607083314158       -0.86362910694286       -0.85696855267838
C            8.67161110841838        0.02948302894945        0.03770241406565
C            8.00291708056916        0.91164877460366        0.91101352174183
C            8.64757834288339        1.82015293833793        1.81733418666903
C            7.66624811820977        2.48539820019853        2.47882805192461
C            6.41304550005533        1.98873641504014        1.98231864869789
N            6.65542663340809        1.03452191515535        1.03129570520215
C            5.15842911666453        2.41049104547238        2.40523193041683
C            3.92501798044339        1.95408872955205        1.95238921113340
C            2.64312140013833        2.41318154840374        2.41621265331683
C            1.69996748499101        1.72277098782640        1.72750543676761
C            2.39484233594907        0.83355541758517        0.83515896639659
N            3.73925383753755        0.99840997167092        0.99752901658500
H            0.70739122418637       -0.06700446689516       -0.06427364293042
H            0.71952685503580       -1.93160947893310       -1.93719629091928
H            2.65821993672408       -3.24924478680653       -3.26134695667802
H            5.29767402607291       -3.18936998817609       -3.19945745282697
H            7.92974223734197       -3.19435968747782       -3.19512812244870
H            9.80811940573096       -1.83816996532769       -1.82612365130410
H            9.71550634850368        1.92697401598920        1.92508023074251
H            7.76972123030680        3.24593350347833        3.23695695514878
H            5.13938912449996        3.17800616033897        3.17296406015199
H            2.49792878373456        3.16857834151769        3.17286580135840
H            0.62653035613605        1.79860862064305        1.80627697111827
Zn          23.86718662671272        0.00795631158156       -0.00330504128226
C           27.29361867583722        0.07303966466430       -0.00498062341599
C           26.64618128484413        1.30231727125562       -0.06580041623037
C           27.29478615408726        2.58499766513652       -0.12879051318106
C           26.31671958812040        3.52402813589988       -0.17508991709635
C           25.05954730833118        2.82595263234556       -0.14065326979034
N           25.29428640990499        1.48427552758532       -0.07495104495443
C           23.80373472957057        3.42312575116052       -0.16829766710672
C           22.57187084483653        2.78142952536406       -0.13465757474471
C           21.29399521914684        3.43690591097622       -0.16268274936649
C           20.34768815638234        2.46486934762218       -0.11260392271159
N           22.37886353879446        1.42779154243768       -0.06889223143735
C           21.03877404985369        1.20728134042193       -0.05412812156486
C           20.41490549923454       -0.05618924115258        0.00640794920854
C           21.08514601342809       -1.29555517855422        0.05931696393659
C           20.44214202773984       -2.57827403124930        0.11876467614275
C           21.42467064580244       -3.51421596763809        0.16122285570917
C           22.67698082655269       -2.81112917544263        0.12837473344385
N           22.43287199087579       -1.46567814352629        0.06576091465475
C           23.93233599268958       -3.40612707932126        0.15774396799468
C           25.16496352932416       -2.76233800166898        0.12909699163526
C           26.44766119897994       -3.41252178943860        0.16226346889403
C           27.38961572616970       -2.43723439242242        0.11693683017647
C           26.69318070213822       -1.17984171217036        0.05539742010332
N           25.34905796168218       -1.41268678396361        0.06484155402451
H           28.37900993330793        0.09368751466950       -0.00495419588805
H           28.36353795304703        2.73315363549273       -0.13596750734065
H           26.42252446807291        4.59651792229548       -0.22786452415174
H           23.78321176775200        4.50738989361241       -0.22090271395520
H           21.15110948153297        4.50498298202294       -0.21400673472592
H           19.27506868567992        2.57816609910844       -0.11520762990713
H           19.37440422176770       -2.73115105332644        0.12642423813343
H           21.32253565886970       -4.58705174934967        0.21090961190576
H           23.95268180823212       -4.49047240680032        0.20918795759932
H           26.59416754348278       -4.48028473435196        0.21376021810870
H           28.46318963134509       -2.54502195927908        0.12379315029170
C           10.07675756814404        0.03603401188073        0.05788478060712
C           11.30131651673861        0.02180157389020        0.06532217354742
C           12.64402328674970        0.00430309024379        0.06886136256075
C           13.87437804538597       -0.02034125242886        0.06085666573721
C           15.21242208032617       -0.04278644963267        0.05246796083553
C           16.44272158121477       -0.06522516937842        0.04210343959614
C           17.78560519650022       -0.07415907620742        0.02948994528751
C           19.01009175838630       -0.07641755270444        0.01545036360439
