189
 energy: -346.549572980152 gnorm: 0.000820812107 xtb: 6.5.1 (b24c23e)
Cu          27.16450020819629       -0.14595611349473       -0.09816150359830
C           23.74931092377726       -0.09976040385066       -0.06194617901976
C           24.39484114962857        0.77905982415151        0.79454556995511
C           23.73505238367533        1.69373670982843        1.68167167818634
C           24.70661380214252        2.37041686548827        2.34480222312195
C           25.96429312980827        1.87215089147012        1.86672423413640
N           25.75008085240296        0.91096756502072        0.92863311092996
C           27.22059438266567        2.31490342061226        2.31075567613768
C           27.24069191565801        3.32148607782727        3.30221665491234
C           27.25003431249643        4.18366145855665        4.15601078035676
C           27.25612586667928        5.18450554464729        5.15447193473619
C           28.45466690351199        5.68795065515578        5.67351485119281
C           28.40330702792354        6.66472795556829        6.65194740736766
N           27.26305744057159        7.15614511982540        7.13052584359404
C           26.11932913431078        6.68316712558728        6.64183010421639
C           26.06120231959937        5.70729940228203        5.66298297336369
C           28.45497788259576        1.83210208801143        1.85019278715423
C           29.73040064655099        2.29048270775525        2.31372643157450
C           30.67359472962951        1.58629715958925        1.63588705311623
N           28.63193885947176        0.86421977769579        0.90419570213190
C           29.97674067051778        0.69687665991820        0.75622475146843
C           30.60179402293845       -0.20442023500247       -0.12265994489453
C           29.93300725128091       -1.07996049652034       -0.99577930696335
C           30.58649901250936       -1.98810264135862       -1.88950833697567
C           29.61036719354748       -2.65468243236040       -2.55846828982073
C           28.35808544292942       -2.15610708513099       -2.07397561463451
N           28.58137367827153       -1.19985820377759       -1.12590836207530
C           27.10173984045807       -2.59839598594266       -2.51580929384949
C           27.07906254384330       -3.60259655479599       -3.50960680236879
C           27.06922203452865       -4.46398764989370       -4.36417724591695
C           27.06166813675255       -5.47064286349631       -5.35674873667770
C           28.25580031679066       -5.99852580937844       -5.86191933985635
C           28.19608398818106       -6.98425398096438       -6.83070519613849
N           27.05150834753481       -7.46183448477574       -7.31302896170621
C           25.91210168487177       -6.96462611649647       -6.83857480611011
C           25.86232780419282       -5.97799311020139       -5.86998822700556
C           25.86764134863152       -2.12231796030745       -2.04562916704685
C           24.58709755374852       -2.58514532811318       -2.49770273465565
C           23.64865673787284       -1.88704069588350       -1.80946645657598
C           24.35188757603624       -0.99344220670974       -0.93424614341534
N           25.69978901081924       -1.15997959347138       -1.09929412705742
H           22.66427598344987       -0.08590843726442       -0.04906701252861
H           22.66522271525178        1.79473563832537        1.77462330752839
H           24.59512255604267        3.13962947399885        3.09246102183716
H           29.40586907214008        5.31577546718237        5.31258401391953
H           29.31777530086613        7.07290731170050        7.07272511161205
H           25.20769944543339        7.10592609288527        7.05432616708619
H           25.10743722731736        5.35031957493413        5.29343998609375
H           29.87517159988914        3.05342739405753        3.06189719413153
H           31.74657923581476        1.65590417255685        1.71660531249423
H           31.65508980981145       -2.09461035553129       -1.98605434545917
H           29.71879714216029       -3.41721596884497       -3.31313309094987
H           29.21012049897767       -5.63834224823886       -5.49698603074953
H           29.10696354577482       -7.41181037089200       -7.23986607973301
H           24.99688743839536       -7.37651906762457       -7.25409830332424
H           24.91169293497863       -5.60170357752153       -5.51180003801311
H           24.43920748495012       -3.34755003922499       -3.24603907698695
H           22.57472212218871       -1.96003445244524       -1.87819563448506
Cu          64.40019692536856       -0.21406915212815       -0.12992377685870
C           67.81571356515708       -0.23630519293535       -0.12499710474047
C           67.18443617048375       -1.42945489633193       -0.44212290094349
C           67.85870808422213       -2.65442824860387       -0.76435453274892
C           66.89797607717384       -3.58141131433410       -1.00802063731893
C           65.63263828406221       -2.92744863751378       -0.83593854531670
N           65.83148499794203       -1.62592976858894       -0.49480541863212
C           64.38342875482891       -3.54779934211473       -0.99579646977296
C           64.37457394241524       -4.91598638830946       -1.34875554014151
C           64.36483724857533       -6.09125444058226       -1.65042580519746
C           64.34734984011510       -7.46084815546090       -2.00050490927683
C           63.14067029362651       -8.15048435498705       -2.16798281341445
C           63.17626838940105       -9.49027411326064       -2.51078214314409
N           64.30879480508277      -10.16508394439788       -2.69172782022274
C           65.46006170677343       -9.51662755234220       -2.53458357733058
C           65.53394444645612       -8.17803739551729       -2.19284058569403
C           63.14182504285850       -2.91477796899129       -0.83191672771577
C           61.87385270309233       -3.55958589933596       -0.99920283680409
C           60.91969360469395       -2.62297554350726       -0.76023619018729
N           62.94956793100220       -1.60595345024333       -0.49554942618299
C           61.60235428818457       -1.40405903677312       -0.44603160796668
C           60.96240195798827       -0.19082525102767       -0.13796675975606
C           61.61660000188088        1.01340184895018        0.17410537874444
C           60.94871404967658        2.24067780775492        0.48739005932361
C           61.91419402499000        3.16380334851090        0.73354604755408
C           63.17426338826402        2.50242737349583        0.57085674152140
N           62.96616257547656        1.19712607832208        0.23032923636171
C           64.42362714849710        3.11841345756223        0.74004087207103
C           64.43433099878769        4.48624202323405        1.09433637840699
C           64.44730284618281        5.66154344824291        1.39581205958700
C           64.46637644817415        7.03141471563780        1.74471107669998
C           63.28033416962359        7.75063577009309        1.93295987682900
C           63.35527179470832        9.09002592442015        2.27122562721636
N           64.50710735592361        9.73748749642020        2.42858327124982
C           65.63906933527082        9.06073279998332        2.25163658879886
C           65.67360952991643        7.71992896888975        1.91261645054424
C           65.66516919807128        2.48203731372172        0.58211698886745
C           66.93841773812922        3.11981599963006        0.75699335692206
C           67.88783337391285        2.18086318511482        0.51492494754647
C           67.19879716227543        0.96467479562923        0.19076699784754
N           65.84829306683403        1.17835794159621        0.24051148625279
H           68.90089004520563       -0.24315373743099       -0.12368751623871
H           68.93004744380389       -2.77524624083913       -0.79620221649505
H           67.02136097792464       -4.61755837378468       -1.28061174798994
H           62.19543427893341       -7.63944039707240       -2.03020227324504
H           62.25516503163595      -10.04976366181059       -2.64663858897596
H           66.36491599905848      -10.09722158842976       -2.68979168839553
H           66.49352840706950       -7.68921905080910       -2.07509270420124
H           61.74087475904873       -4.59600169309139       -1.26549756308653
H           59.84805766623784       -2.73779134587022       -0.79150475636438
H           59.87845294739975        2.36916041483083        0.51336194266084
H           61.79400385571491        4.20121160539818        1.00210187642709
H           62.32037084135223        7.26271694715257        1.81466135330620
H           62.45090936915970        9.67219706785412        2.42329249083932
H           66.56066360491901        9.61938047620155        2.38770397127788
H           66.61847291237348        7.20736908805361        1.77786824037252
H           67.07458871746394        4.15420331447519        1.03015563598627
H           68.96054299853257        2.28812725385004        0.54905970967546
C           32.00781888855779       -0.23406411240961       -0.13264436213885
C           33.23118834973126       -0.27106274209696       -0.14681228980195
C           34.57380764318926       -0.31012989021720       -0.17027108754171
C           35.80305791343877       -0.35111958053024       -0.19595839334869
C           37.14009348754829       -0.40172432248938       -0.23379815118648
C           38.36895106765697       -0.44652297394358       -0.27135399042453
C           39.71074591057220       -0.49319955283545       -0.31161318402603
C           40.93381224963864       -0.53105437448625       -0.34815548554652
C           50.62802656455337       -0.42465796974940       -0.28557343514995
C           51.85052271459821       -0.36907357427863       -0.25210836895466
C           53.19222028888872       -0.31519495799442       -0.22169275735100
C           54.42146284968024       -0.26894260270943       -0.19912537285395
C           55.75921066406806       -0.23296275819724       -0.17541893661455
C           56.98899449811400       -0.20251696210794       -0.16143418519320
C           58.33217830578798       -0.18843847703968       -0.15149169095300
C           59.55617228210158       -0.18433191775148       -0.14229731920871
Cu          45.78227846361805       -0.56327339444433       -0.37851851942123
C           42.33910258612860       -0.56022648350913       -0.37175197388146
C           42.98555248203018        0.15070951546747       -1.39823580408562
C           42.30966680180464        0.86750121457076       -2.43733173044763
C           43.26944968769174        1.40651116418082       -3.23337587233808
C           44.53327310354175        1.02521471262867       -2.67795129324829
N           44.33347822271094        0.26086345438003       -1.56550630126008
C           45.77966783653673        1.39995697003896       -3.20338700189798
C           45.77751374591603        2.18480447349970       -4.37876165733582
C           45.77297077857465        2.84423449774127       -5.39733298526376
C           45.76133198373258        3.60729009860969       -6.58749793538317
C           46.95076305546048        4.00835298967755       -7.20691019258081
C           46.88209503804480        4.74892489799355       -8.37349530361742
N           45.73335213703707        5.10408359769066       -8.94344165204230
C           44.59816379283162        4.72778047185077       -8.35999383704923
C           44.55734821657374        3.98619816819928       -7.19288382300645
C           47.02673419976689        1.06330970309274       -2.65479543384710
C           48.28874343448433        1.48267018737611       -3.18631748108671
C           49.24928757266608        0.96710612884516       -2.37579049723829
N           47.22849718541042        0.30168135500384       -1.54083254160504
C           48.57579960213862        0.22688161706179       -1.35156846794904
C           49.22375020475273       -0.47683333897139       -0.32091397201246
C           48.57804417804778       -1.23589995169253        0.67111290808577
C           49.25425137217710       -1.97434052323314        1.69479899311475
C           48.29564391124097       -2.57892618724020        2.44376884570008
C           47.03205217265773       -2.20568661399808        1.88247720988563
N           47.23095919507450       -1.39089572616817        0.80615751931468
C           45.78637866516704       -2.61514673353731        2.38264806312609
C           45.78694625362711       -3.47648396909045        3.50315223868654
C           45.78332504227596       -4.22370755856258        4.45914274464483
C           45.77590360542816       -5.09821653952166        5.57001429038025
C           44.57464665828316       -5.54638317523386        6.13193168000486
C           44.62084233896214       -6.40465940598459        7.21596358099314
N           45.75869260971452       -6.83109280004460        7.75828348519500
C           46.90487942216283       -6.40920232478482        7.23019501273365
C           46.96817221980407       -5.55094754401854        6.14694741075301
C           44.53844312172757       -2.23444863160520        1.86533617141234
C           43.27607772026960       -2.63573491348388        2.40989975368858
C           42.31431900675931       -2.05359305746391        1.64734992591012
C           42.98757936047964       -1.30128317837368        0.63189604771967
N           44.33583681247295       -1.42586251240931        0.78527707512926
H           41.23864052341701        0.93977112528383       -2.53876591943532
H           43.14249114596328        2.01167074415431       -4.11678361380048
H           47.90851830014524        3.74039454294114       -6.77740538610571
H           47.78919086268273        5.07227468954013       -8.87602492426646
H           43.67921403565129        5.03485372591121       -8.85105789802883
H           43.61011349303113        3.70073056665078       -6.75146515187547
H           48.41397034089270        2.09497388102767       -4.06505221746678
H           50.31942168253615        1.07010729188043       -2.45826868944382
H           50.32477586674079       -2.02078461013601        1.81489907567632
H           48.42302333479069       -3.21881071844374        3.30230742546273
H           43.62531077277657       -5.22430742818172        5.72127584692622
H           43.70416471872078       -6.76831748294302        7.67134521011672
H           47.81430690040552       -6.77659374696939        7.69696285057553
H           47.92387660714180       -5.23269611985405        5.74830522086130
H           43.15119479409876       -3.27765740523115        3.26727416281178
H           41.24361584166595       -2.12479093715825        1.75279236620228
