234
 energy: -402.746153821761 gnorm: 0.000722391376 xtb: 6.5.1 (b24c23e)
C           22.50237745078153        0.04060842253212        0.07107383398708
C           23.12721352636089        0.04402282822262        1.31147765133563
C           22.50022828292284        0.00477073679469        2.58902359950620
C           23.48065158506006        0.03241254121542        3.54042882498374
C           24.73827112881757        0.08763834141549        2.87456975077315
N           24.47451337470217        0.09502182151603        1.53382632771972
C           26.00736099115387        0.12662613313809        3.45937764577722
C           27.21841583600312        0.13781863157533        2.76726942434938
C           28.51489388069822        0.14136243466502        3.42021801645420
C           29.43813302543584        0.15556745083117        2.43631470088391
N           27.37488581192644        0.16258284264312        1.41473692657065
C           28.70341969478056        0.16751815642659        1.18565753639402
C           29.33674982770487        0.18619854574832       -0.07406294760011
C           28.68509291043391        0.21499614502364       -1.32140564662561
C           29.30573609846600        0.25867935385715       -2.59856603415014
C           28.32006039471474        0.28789650475892       -3.54564200186594
C           27.06616826313517        0.25945979474774       -2.87445496589094
C           25.79745877543702        0.26751734069462       -3.45884849904492
C           25.75782804404594        0.28344397490164       -4.95265281902860
C           25.90888352651348        1.42984140987864       -5.73751794422448
O           26.07965754786724        2.69570095759729       -5.27124849511087
C           25.67398192212066        3.10790241360778       -3.97868229023292
C           25.91871810451062        1.32443317435437       -7.13422988075417
C           25.76712841722136        0.09587068683839       -7.74418730699692
C           25.59516258841889       -1.05540933833204       -6.98459827730394
C           25.59411876185063       -0.95826578052837       -5.59777716060397
O           25.45416360662464       -2.02758341385143       -4.76855514338081
C           25.26098337579205       -3.32331361855430       -5.29921190139119
C           24.58688604333574        0.19026612688136       -2.76590556439298
C           23.28503413209273        0.15925185703480       -3.41300613429475
C           22.36923021475130        0.09412761431976       -2.42530121714684
C           23.11134954743348        0.09236616114214       -1.17643063702296
N           24.44346410062554        0.15526488203137       -1.41980681666393
N           27.33874805695294        0.21852051616726       -1.53185535892827
C           26.04646733595969        0.06832923037491        4.95253353142879
C           25.82959137210755        1.16033797733841        5.79695189102108
O           25.58506757926473        2.43749165874702        5.39991742858424
C           25.94651773304143        2.93859566241373        4.12598461547800
C           25.82889284815452        0.98038410597225        7.18617450556904
C           26.05250800098969       -0.26784045172452        7.73029209345861
C           26.28782458915327       -1.36560978298890        6.91083744410154
C           26.28080617268954       -1.19484409460254        5.53124533207536
O           26.47741407372344       -2.20941083806495        4.64667197279505
C           26.76117170360693       -3.51518993427467        5.10703496811410
H           21.41824122528433       -0.00465931864069        0.08775270816141
H           21.43405410103254       -0.03875026955174        2.74512871980178
H           23.35550421215409        0.01362786427006        4.61103606930062
H           25.18285125500530        0.11032639114306        0.80794602437999
H           28.66863183042363        0.12862389382469        4.48735891809833
H           30.51321301122591        0.15938266592180        2.52046229776547
H           30.37164597855772        0.26731059051691       -2.76020956289117
H           28.44148238585237        0.32226636152589       -4.61614063451964
H           26.38080608132650        2.77886319460166       -3.20907724981758
H           25.65699335982080        4.20035114522988       -4.00119376664537
H           24.67255409475107        2.73710991614823       -3.73557295492676
H           26.04583680062737        2.22881579989372       -7.71577919906829
H           25.77555911010434        0.02538842355904       -8.82602243554279
H           25.47233543258023       -2.01079479261792       -7.47675972260872
H           25.16087102444491       -3.99091750523897       -4.44130628597482
H           24.34855047656988       -3.37693137307655       -5.90564261879199
H           26.11828136864303       -3.64168400311268       -5.90491253152099
H           23.12608689083035        0.17907061704633       -4.47946261476392
H           21.29388976427060        0.05150423621184       -2.50177794363453
H           26.63402403540556        0.17268592564540       -0.80346116624086
H           26.96203017774563        2.63686127311144        3.84944226889162
H           25.90417794768838        4.02755979073563        4.20628297223897
H           25.24570981750278        2.61188952963133        3.35006888610531
H           25.65102796336074        1.84375437108953        7.81481537768882
H           26.05078204627772       -0.39583618854583        8.80685059821828
H           26.46519299502762       -2.33745188955545        7.35148647448842
H           25.93127829152618       -3.92296636567824        5.69697541156612
H           26.90114992699674       -4.12801172755087        4.21453211083420
H           27.67866809525216       -3.53838914680130        5.70744960400896
C           66.54412557152287        0.11557489728060       -0.11587166104887
C           65.92818042822387       -0.02259746774259       -1.35299403302325
C           66.56510210760489       -0.15358508940517       -2.61947350476881
C           65.59107123309236       -0.26050013444077       -3.57180112317590
C           64.32762632512215       -0.19957328273407       -2.91756942298606
N           64.58149923850168       -0.05347610371082       -1.58283474500726
C           63.06176896269860       -0.27624325612661       -3.50591553283517
C           61.84700335454136       -0.25051660016939       -2.82066207538687
C           60.55566599073266       -0.35985294211311       -3.47453085179826
C           59.62594941284846       -0.27911887134528       -2.50013355758526
N           61.68080853241953       -0.09673354593615       -1.47785075947741
C           60.35135895608261       -0.11421056805237       -1.25483306782064
C           59.70825797411186        0.01796864889137       -0.00678067377312
C           60.34929971864568        0.18936559292553        1.23445336009215
C           59.71868018610755        0.33757322815493        2.49873806289108
C           60.69658605137687        0.48486668078929        3.44299290005175
C           61.95539044175468        0.42871404874392        2.78288136432530
C           63.21917593050340        0.53414017933477        3.36829735925924
C           63.24952289125631        0.68619802942991        4.85496234897398
C           63.08629302646835        1.89592068434512        5.53509675360526
O           62.90292208885140        3.11488072684270        4.96209683067123
C           63.26770417560217        3.41165560930660        3.62666622116648
C           63.07704739140163        1.91382339587066        6.93595146258187
C           63.23977105422267        0.74576753870314        7.65226173290276
C           63.42154894101862       -0.46684697610465        6.99756381445128
C           63.42276842648300       -0.49219139024109        5.60768850233332
O           63.57338916532689       -1.62910989351228        4.87580233022841
C           63.77874511385681       -2.87102787686503        5.51845335623749
C           64.43624981709318        0.43743109690745        2.68945384721493
C           65.73395792155678        0.51461053923668        3.34107247460909
C           66.65823268940969        0.39775449007783        2.36604390400659
C           65.92517069609771        0.25475084459007        1.12002975680593
N           64.59004863344074        0.28654358247250        1.35246498083498
N           61.69348712478067        0.25127501371338        1.44936294459942
C           63.03466459197961       -0.47197141713934       -4.98693386992831
C           63.25262781950823        0.54439194862273       -5.92106813358494
O           63.48038664949881        1.85286208621273       -5.62704539488066
C           63.02527050475187        2.46508527359298       -4.43352472514887
C           63.27495579589538        0.24499028538512       -7.28879854870634
C           63.06893192627841       -1.04836751232781       -7.72439388281314
C           62.82913763284088       -2.07196539396015       -6.81533982095503
C           62.81612324911816       -1.78238345821424       -5.45554904807604
O           62.61520954981731       -2.71812502709770       -4.48904485477645
C           62.34379152374291       -4.06059829678091       -4.83802964871012
H           67.62930313572610        0.11543036374029       -0.12524921916084
H           67.63320513292859       -0.16327270515203       -2.76796430277706
H           65.72467622748859       -0.37472222401996       -4.63540314797757
H           63.86815286810238       -0.00091860297778       -0.86361432858425
H           60.40925724987000       -0.48556869827695       -4.53529471311855
H           58.55207044677771       -0.32232800645816       -2.58799911591485
H           58.65178793471544        0.33095209327809        2.65400057093592
H           60.56705589268341        0.61813889593757        4.50478099043665
H           62.55402692859348        2.99175638115418        2.90941704541483
H           63.25317839555515        4.50131549634706        3.54526080774108
H           64.27408467604366        3.04676333542731        3.39525645215161
H           62.94122452960832        2.86488177882396        7.43524731321012
H           63.23201551334431        0.77147713876677        8.73608734691815
H           63.55246020186332       -1.37389334271111        7.57218638990901
H           63.88615000145141       -3.61059804910976        4.72272899227008
H           64.69103851450920       -2.86200354421458        6.12724025219447
H           62.92419869201548       -3.14321697071518        6.14983286381229
H           65.88477545706419        0.63574849337922        4.40202398689451
H           67.73387649310679        0.40436666076077        2.44952371914175
H           62.40427237072813        0.15748559438319        0.73152647315830
H           62.00796239240945        2.14706226614339       -4.18286563465873
H           63.02937033747221        3.54135394548639       -4.62316185152468
H           63.69151238763253        2.25001993239820       -3.59092626223661
H           63.45426878098895        1.05179374610722       -7.98811243289077
H           63.08674713430501       -1.27015310477719       -8.78546269339640
H           62.66427734607751       -3.07978936753025       -7.17199021300404
H           63.18305594001682       -4.51289856417602       -5.38034329278943
H           62.19566533518931       -4.59463419033974       -3.89753306798586
H           61.43400925107849       -4.14117695237823       -5.44521978675405
C           30.74211586034764        0.17730559236292       -0.10290200895200
C           31.96620401080320        0.16109469226244       -0.13451481253906
C           33.30886088487586        0.14120362280890       -0.16565395643728
C           34.53906435775227        0.12027110387910       -0.19699248325641
C           35.87686071479398        0.09723045221784       -0.22815632260015
C           37.10720898001080        0.07443438449258       -0.25368901123161
C           38.44982334485535        0.05687963804698       -0.27541165204650
C           39.67452217781215        0.03954078728663       -0.29136641846732
C           49.37007873704213       -0.06546936549613       -0.11450265922578
C           50.59434310296650       -0.07823094319244       -0.07782200922178
C           51.93671983171409       -0.08373014786015       -0.04611409302208
C           53.16721601291161       -0.08314130162855       -0.02183447967520
C           54.50524936461611       -0.07383382229521       -0.00124281507242
C           55.73585141130982       -0.05733757404486        0.01359518007636
C           57.07874325238701       -0.03730821854967        0.01825874913436
C           58.30325662694477       -0.01681099149079        0.01075704406784
C           41.07926935210411        0.03123796281001       -0.29697082896868
C           41.71534281847401        1.23403683939214        0.06545155569771
C           41.07766951497412        2.44803589325481        0.43298763773020
C           42.05203067146695        3.36713351083626        0.70863217471151
C           43.31378306085855        2.74162888870494        0.51408879502932
N           43.05877552805409        1.45287319364139        0.12849651593446
C           44.57559341337777        3.31561854933191        0.69933541940291
C           45.79875014321008        2.66572424165447        0.53985956019709
C           47.08498116263473        3.31580290947168        0.71810080528073
C           48.02461730148091        2.37708052843694        0.48513607484983
N           45.97870846065341        1.36154885990591        0.19148248637836
C           47.31084182818856        1.15786895469694        0.15681016938666
C           47.96603461215302       -0.05062866371997       -0.15474020612499
C           47.33255454317555       -1.25513064573976       -0.51641670171614
C           47.96740890013989       -2.48098614553308       -0.84640976861183
C           46.99220810132392       -3.38978550816457       -1.15464442000565
C           45.73329111771808       -2.74378034951648       -1.01972374125871
C           44.47219162836822       -3.30401180084308       -1.24575495401050
C           44.45688537505234       -4.74934160393015       -1.62962082944004
C           44.27766669636239       -5.67569770302493       -0.58307221102825
O           44.11201961545673       -5.12822573701258        0.65128591291288
C           43.88649442288236       -5.95441906899011        1.77549829215002
C           44.28776038806452       -7.04497642239495       -0.82186297907004
C           44.48474290891429       -7.50396623804159       -2.11903545318743
C           44.65549343751331       -6.61543282185302       -3.16058511841390
C           44.63816350925120       -5.23379733925676       -2.92762387597178
O           44.83135870186729       -4.48149249841176       -4.04253642381878
C           44.49693785681804       -3.10850666810514       -4.12827463686329
C           43.24847900045668       -2.65970159620488       -1.07115529164695
C           41.96549682890959       -3.30366239587117       -1.28646891181834
C           41.02291365027052       -2.37458529330467       -1.02266519824485
C           41.73314193541806       -1.16573944359003       -0.65313602694124
N           43.06578035368164       -1.36339207011250       -0.69705124941987
N           45.98985383539237       -1.45533246811321       -0.63186334095826
C           44.59324757681474        4.74932656055803        1.10798091808209
C           44.18408284953459        5.74665248655210        0.21267308871302
O           43.78896457591385        5.31694058441742       -1.01537379550726
C           43.37785189753036        6.24525596204048       -1.99938873175246
C           44.20584143217059        7.08783735175237        0.59357699908744
C           44.62968051072165        7.42557195172685        1.86991723167796
C           45.03313151547260        6.45564435047007        2.77490451419647
C           45.01677588045291        5.11451070505767        2.39321980364436
O           45.38075561149469        4.09254420145887        3.21077365595714
C           45.85979257378106        4.35377165416888        4.51490883827939
H           40.00978508679148        2.58885199197913        0.47944421312281
H           41.91391458724846        4.38931159931338        1.02092023571091
H           43.77131436320308        0.75874471912685       -0.07035172731402
H           47.22464121402918        4.35128454703194        0.98304739909344
H           49.09811886379913        2.47364800612779        0.51913190767832
H           49.03412692567471       -2.63727017060629       -0.84584495634106
H           47.12534456757963       -4.41831435035126       -1.44841006112139
H           43.76289997255607       -5.28201738739822        2.62650237612519
H           44.73814539759481       -6.61963148611252        1.96318035718075
H           42.97668884407759       -6.55505525889177        1.65601428665106
H           44.15195895227917       -7.75296560115048       -0.01545008145774
H           44.49912774150644       -8.57079696990455       -2.31153540432316
H           44.80437949622672       -6.96157310669096       -4.17557998864831
H           44.53670713535848       -2.85508847965953       -5.19047824993280
H           43.48719665567655       -2.91716663874228       -3.74996156862449
H           45.21417854450672       -2.48280308488652       -3.58603062101758
H           41.83299644211761       -4.32946745672422       -1.59109149717972
H           39.94971624907734       -2.47093609007842       -1.06612765754733
H           45.27937382154848       -0.75646130108385       -0.44206498479980
H           44.18325325273716        6.94534601417620       -2.25208193176155
H           42.49494011410410        6.80948786656417       -1.67518293578578
H           43.12288900230242        5.65766184249590       -2.88329564363839
H           43.89637888178797        7.86562092816635       -0.09150170755849
H           44.64425266434827        8.46855360853068        2.16658446615123
H           45.35435827798383        6.74756743046836        3.76570272454175
H           46.76075710103392        4.97865318529192        4.49342763117130
H           46.10704088592115        3.38251902867347        4.94732514731483
H           45.09574584784901        4.83964833754488        5.13375901926327
