148
 energy: -250.766358328412 gnorm: 0.000623570006 xtb: 6.5.1 (b24c23e)
C           13.39583071538078        0.04266527768939        0.21189532481401
C           14.02792080785630       -0.06984250953489        1.44335212397284
C           13.41013604876229       -0.21698568549731        2.71760961694429
C           14.39825715916647       -0.28544132471310        3.65892193889753
C           15.65131951011053       -0.19002004258847        2.98919018945532
N           15.37733528647022       -0.05435665075931        1.65745450207010
C           16.92406306316451       -0.23105124031408        3.56400255529502
C           18.13230752215697       -0.18565754361904        2.86745608440406
C           19.42780244537254       -0.33204473642791        3.50488792588912
C           20.34878580918613       -0.22993141322270        2.52372136237924
N           18.28809748357628        0.00685103300560        1.52837850478665
C           19.61629277313454       -0.00970390891522        1.29215836000753
C           20.24671907935497        0.16902151758553        0.04387508025724
C           19.58630997588285        0.35945576319460       -1.18451599358920
C           20.19302837373343        0.58915186106038       -2.44787465641744
C           19.19888511311038        0.71964563703362       -3.37755130190390
C           17.95247892752898        0.57345903418500       -2.70881289743357
C           16.68063411125066        0.63934138478292       -3.28389831306138
C           16.62828342132601        0.79065875067667       -4.77046300436028
C           16.39276545234696        1.98542008234968       -5.45567278920727
O           16.20965707613450        3.21253293459438       -4.90449072916398
C           16.34032969754638        3.49309090506261       -3.52385047436063
C           16.33136888325708        1.98475404918596       -6.85650147727074
C           16.50543922387677        0.81572586484820       -7.56700403559790
C           16.75177398358261       -0.38314247641047       -6.90760370814264
C           16.81251369009351       -0.38962795805505       -5.51954096574537
O           17.04276835269024       -1.51042041498892       -4.78231523802040
C           17.19787897877127       -2.76384311866821       -5.41620310502548
C           15.47254741296320        0.48321115109981       -2.60074922521321
C           14.16980726413254        0.49004975879630       -3.24769943892318
C           13.25700021029297        0.32032224525289       -2.26980103966233
C           14.00124566250406        0.21335776861001       -1.02693997928831
N           15.33181042728719        0.31607174751623       -1.26357992451645
N           18.23745134369539        0.36669900306296       -1.38495091051965
C           16.97385454868266       -0.43972612532721        5.04446357156240
C           17.07898751154567        0.57558297118682        5.99855574810514
O           17.13856405370140        1.91060624555717        5.75914349103471
C           17.23619797791474        2.48752663753967        4.47109371083406
C           17.10976942943588        0.24926391834829        7.36194275333709
C           17.03938109327713       -1.06552912747754        7.77182631293222
C           16.93406141300692       -2.09237467426881        6.84066087568782
C           16.89913817920586       -1.77560443682851        5.48816771305328
O           16.79136351648867       -2.70584091446989        4.50042956993757
C           16.73997080464744       -4.08196174144713        4.81792522204571
H           12.31189349058770       -0.00504676981459        0.22866674917920
H           12.34469948027039       -0.26147452806850        2.87848224261902
H           14.28207497076197       -0.39715913326121        4.72496736886126
H           16.07903131030353        0.02145299192377        0.92902273417766
H           19.58253927598404       -0.50325138628235        4.55815625259591
H           21.42152915140613       -0.30279235859547        2.60070483805838
H           21.25568829387941        0.65315314713695       -2.61488333548541
H           19.30957507952157        0.90142721518062       -4.43430886044268
H           17.31209229094149        3.16856333631521       -3.13532944044094
H           16.26338853801449        4.57919553391155       -3.43129057674702
H           15.53924543714759        3.02670666821868       -2.93960952741367
H           16.14481825295905        2.92509674502903       -7.35976611574783
H           16.45385181479553        0.82911991995533       -8.64982536059346
H           16.89037596021436       -1.29222534780100       -7.47700060618361
H           17.34863292189404       -3.49168808438007       -4.61662983557287
H           16.30312241563237       -3.03756841974011       -5.98839162937340
H           18.07040487806722       -2.77373780657303       -6.08070711088623
H           14.00827453532754        0.60347614702801       -4.30784373879342
H           12.18238864148065        0.26753529687564       -2.34970771501332
H           17.54076573554818        0.21753434365779       -0.66275252638192
H           18.14814314105942        2.16774616196949        3.95525678948497
H           17.27541383485938        3.56778371685389        4.63067900181402
H           16.36419486832135        2.24962744548180        3.85231823405855
H           17.18946187893689        1.05716532190690        8.07830335618507
H           17.06577268466821       -1.30363745145571        8.82916196259585
H           16.87884225955661       -3.11927059366789        7.17574897695029
H           15.86006471371867       -4.32164135576573        5.42734605224373
H           16.67072111414778       -4.61107704887876        3.86556183877549
H           17.64536592467198       -4.40646812195256        5.34513039154809
C           31.13203775840562        0.02156414790258       -0.21404591165954
C           30.50015720273677       -0.19898361303024       -1.43091052072891
C           31.11816790251522       -0.45989514683121       -2.68671905085959
C           30.13029776353303       -0.60982895790507       -3.61879612356997
C           28.87717225734897       -0.45291863599977       -2.96089587139328
N           29.15086893972698       -0.20006979683783       -1.64630486184570
C           27.60452801813074       -0.54216488289680       -3.53045772673138
C           26.39619975539823       -0.43359458445842       -2.84104399983555
C           25.10065167456574       -0.63343103836108       -3.46368224466662
C           24.17963785992176       -0.44565965158973       -2.49528950039191
N           26.24038695694180       -0.12506404281236       -1.52385203065740
C           24.91215308901116       -0.12018437843311       -1.28729260793898
C           24.28160510264509        0.16581103004715       -0.05919158121261
C           24.94178092185964        0.46262656882334        1.14804033906826
C           24.33480765351419        0.80173130715224        2.38641316272614
C           25.32880204216450        1.01416824076334        3.30102256640703
C           26.57536077772903        0.81080525284768        2.64769160213861
C           27.84719330948889        0.92780029858695        3.21458743900075
C           27.89989186925044        1.21008871865199        4.68189492551583
C           28.13647221634264        2.46056900159601        5.25854850385728
O           28.31986305805411        3.63388826796293        4.60078128238949
C           28.19031863037418        3.79109716525917        3.20101843165897
C           28.19887184854466        2.58379809730958        6.65391109263986
C           28.02469110758821        1.48236094495498        7.46517023034524
C           27.77710063472247        0.23004734027290        6.91457680169216
C           27.71541572400949        0.10085414867876        5.53257039037345
O           27.48400228942558       -1.08058856706586        4.89747272218568
C           27.32958919385932       -2.27314685829728        5.63969021194315
C           29.05529120854797        0.71178974049601        2.54791097835905
C           30.35797170438883        0.77521728228926        3.19191177006188
C           31.27076735119812        0.51870439407425        2.23310724678169
C           30.52657866281204        0.30234148891349        1.00453091794580
N           29.19606166922009        0.42664493470374        1.23086843270787
N           26.29060962166596        0.48833635484807        1.34709832247518
C           27.55452231798587       -0.88214044662613       -4.98636995984608
C           27.44891497935638        0.04352706612775       -6.02759103559581
O           27.39070606814106        1.39468553819379       -5.90867851135839
C           27.28754365253576        2.08416472007938       -4.67769874989984
C           27.41701382119519       -0.40371306380139       -7.35620392783878
C           27.48678513170484       -1.74997916648147       -7.64660509865704
C           27.59286225288591       -2.68921289836146       -6.62719381210993
C           27.62899041232625       -2.25243708432507       -5.30859514377334
O           27.73778810511743       -3.09034702437482       -4.24149091145642
C           27.78805056303529       -4.48943594396636       -4.43415735568632
H           32.21591426586002       -0.02888447102473       -0.22609644956556
H           32.18358324242620       -0.52058114623764       -2.84236299623562
H           30.24669397540239       -0.81607048459366       -4.67063152552630
H           28.44895056820555       -0.05879987733506       -0.92789890385034
H           24.94585520990438       -0.89523066564996       -4.49814976233865
H           23.10684208950949       -0.52383216356643       -2.56596214590087
H           23.27207326114516        0.87919590222111        2.54717431312986
H           25.21790191581759        1.28793029232827        4.33774479209361
H           27.21917669590721        3.43393318178489        2.84222111722201
H           28.26797652399734        4.86462125869695        3.01251547781092
H           28.99128060673457        3.27458733392197        2.66156295656345
H           28.38662760639348        3.56480853678312        7.07190815434032
H           28.07719308245316        1.59145881757130        8.54252821253220
H           27.63838305793162       -0.62501585505114        7.56223121020243
H           27.17815880140340       -3.06873597658155        4.90763071356068
H           28.22491144883860       -2.49526505722255        6.23296577278033
H           26.45768421284434       -2.22435917178042        6.30328556897811
H           30.51947857175578        0.98213050823716        4.23783595643502
H           32.34533297797409        0.47248474426611        2.31757883934647
H           26.98750983665365        0.27671655925055        0.64088265753636
H           26.37283889526715        1.81197177380338       -4.13995553423316
H           27.25009450573086        3.14593139031365       -4.93307576072999
H           28.15625670257974        1.90189261561760       -4.03591984124439
H           27.33684561265657        0.33670963662465       -8.14206785950904
H           27.45925820219698       -2.08194564104832       -8.67829933833407
H           27.64766667116702       -3.74204500940072       -6.86885467007902
H           28.66684600427138       -4.78347210848295       -5.02095600817902
H           27.85860878648206       -4.93086883897667       -3.43819671381449
H           26.88163568681560       -4.85942786530036       -4.92863641771126
C           21.65571459047861        0.16569754680902        0.00941587355576
C           22.87260160264545        0.16473188197063       -0.02472526212486
