185
 energy: -337.301945443565 gnorm: 0.000529167675 xtb: 6.5.1 (b24c23e)
Ni          31.22524740586514        0.02945633127508        0.03307824404346
C           27.83481147341633        0.04262900116443        0.15193887086826
C           28.49012344025285        1.25456818188716        0.21795750438307
C           27.81772811521704        2.51531658158839        0.29753194483293
C           28.77791416668851        3.45928989472844        0.43484843117893
C           30.03596567897191        2.77162646519871        0.45518884958988
N           29.85084777609036        1.42299131373630        0.28197454249953
C           31.25745096736905        3.39438538116623        0.67791633784001
C           31.27577097809280        4.85091180441506        0.94960729043990
C           30.62572731190316        5.37162593513868        2.07070910922002
C           30.64559369776267        6.73073174415426        2.32805708416747
C           31.31439685805263        7.59871665389673        1.45980769348144
C           31.33415179030662        8.99833327793257        1.71962514834350
N           31.34896059582131       10.12973541091509        1.92913627506911
C           31.96432186079207        7.08243012160219        0.33483324008933
C           31.94609504265830        5.72154671738178        0.08738296659079
C           32.46384081702600        2.70666903782275        0.66429355498228
C           33.72713030093882        3.30927252638236        0.96482447405190
C           34.67040944081659        2.35595918787369        0.77372928061634
N           32.62961604748578        1.38167551924167        0.33072711737020
C           33.98129529402160        1.17442071504045        0.36280644435424
C           34.63709385030430        0.00469142550425       -0.03122100282109
C           33.95060226454229       -1.15041525672476       -0.41586398734396
C           34.60590276245014       -2.33308527080164       -0.87542495360529
C           33.64065981635857       -3.26572257224215       -1.05916204342999
C           32.39885009084954       -2.65194591448008       -0.69751744437258
N           32.59758632163567       -1.33706413856312       -0.34188192957608
C           31.18450824179614       -3.32492684274334       -0.66491753038764
C           31.16751293126586       -4.77512491906040       -0.96788641808619
C           30.43894574297214       -5.26331184128614       -2.05489638201295
C           30.42256694612431       -6.61668197730964       -2.34099373375944
C           31.13372726700588       -7.51179109684673       -1.53627782590844
C           31.11642204988286       -8.90561534702576       -1.82557021585444
N           31.10280576796145      -10.03212468232634       -2.05983684883175
C           31.86185663503556       -7.02833408638614       -0.44514134364807
C           31.87875264019477       -5.67304979598285       -0.16863323819420
C           29.98580588734649       -2.69562651792700       -0.35304543453992
C           28.72681187806354       -3.37466522943893       -0.25350412260689
C           27.78792083154146       -2.42756116108034       -0.02256995214209
C           28.47455413086379       -1.17300048267951        0.02830647163970
N           29.82536903159468       -1.34963369583051       -0.14073882849867
H           26.75191578691904        0.04631022178572        0.19366406890757
H           26.74783605581334        2.64121682994375        0.25024782076786
H           28.65864374352119        4.52760188026827        0.51409790022467
H           30.11588408697742        4.70011704518903        2.75228236742436
H           30.14473682147527        7.12720989664535        3.20349290468616
H           32.48111752868109        7.75282518584797       -0.34189064990227
H           32.44280761955014        5.32528722234660       -0.79105567631692
H           33.86371226177139        4.32861965742196        1.28690803939070
H           35.73909257747718        2.43146917656210        0.89309444164566
H           35.66848226790887       -2.42216027791529       -1.03371259667943
H           33.74941084830312       -4.27837219544726       -1.41151283271991
H           29.89531872758211       -4.57079209244419       -2.68757308724381
H           29.86001680608284       -6.98774538497398       -3.18968075708593
H           32.41119651462154       -7.71980026511819        0.18297332065926
H           32.43523699166008       -5.30280614242068        0.68496149590505
H           28.59279521545750       -4.44021706997570       -0.34531680075964
H           26.72368748137905       -2.54716962147865        0.10333200655497
Ni          63.22970111198532        0.00596368996181        0.05830263432596
C           66.62153589620155       -0.00529890279206        0.16477564816737
C           65.96537239087286       -1.21066119166429        0.30222726441325
C           66.63755040359160       -2.46528583161930        0.45086139447854
C           65.67705627166954       -3.40054235979054        0.63639705275856
C           64.41899977735541       -2.71269496371810        0.61765492605946
N           64.60457112170035       -1.37496538425252        0.37448923833248
C           63.19690549045931       -3.32382878305022        0.86671598482484
C           63.17745445307905       -4.76579962066098        1.20748814020716
C           63.82252423435028       -5.23261456916107        2.35487622522765
C           63.80046515773218       -6.57783165332353        2.67688425797011
C           63.13420690451862       -7.48589425603876        1.84860501441708
C           63.11082755727906       -8.87121355136156        2.17579258377959
N           63.09000475500114       -9.99091185562765        2.44030641175246
C           62.48988879647365       -7.02377003715513        0.69715700589089
C           62.51046619382613       -5.67633850272045        0.38483024841877
C           61.99053523236209       -2.63754276542676        0.81831751655073
C           60.72745146953950       -3.22623273997625        1.14660784196057
C           59.78425547324540       -2.28169517224412        0.91661400798837
N           61.82484640812859       -1.32873716663509        0.42678780769285
C           60.47299842771859       -1.11915204738213        0.45386915243900
C           59.81672990119991        0.03458411752070        0.01780651781831
C           60.50159866623289        1.17051063066753       -0.42123371650711
C           59.84386410573287        2.33198118218264       -0.92922366157547
C           60.80967661590839        3.24968994778300       -1.17393425712128
C           62.05445308681735        2.64938821206854       -0.79975172973572
N           61.85628449188843        1.35544323307688       -0.37428085178178
C           63.27167930753969        3.31746603460070       -0.82185850130553
C           63.29042633722735        4.74750571789578       -1.20934250874210
C           64.00244846270266        5.16568779652568       -2.33578342208603
C           64.01953301695647        6.49927462347803       -2.70299475797661
C           63.32596364638425        7.44473832237947       -1.94163650917586
C           63.34390826656623        8.81821013439775       -2.31572568654840
N           63.35906093628837        9.92807523757916       -2.61924125043527
C           62.61517991928741        7.03161548674085       -0.81093376187731
C           62.59739948577572        5.69544424489430       -0.45314838900758
C           64.47201831987690        2.70245828265107       -0.48918157495228
C           65.73328281817633        3.38293691838776       -0.44072531406982
C           66.67175253242615        2.44912338738555       -0.15981104342016
C           65.98282466656968        1.20158763488212       -0.02900982437545
N           64.63121512892263        1.37087388185738       -0.19936811001269
H           67.70455650311931       -0.00782139583725        0.20332138786035
H           67.70750728069028       -2.59356422738105        0.41207283478852
H           65.79620691547981       -4.46309853334055        0.77262201398796
H           64.33000428611642       -4.52955023321028        3.00569398671105
H           64.29746965302164       -6.93230785525426        3.57230731652856
H           61.97546553830604       -7.72545559520811        0.05105998823369
H           62.01790977651015       -5.32219378940807       -0.51370619335278
H           60.59126015802225       -4.23057630410696        1.51291550547773
H           58.71581772749338       -2.35124490383120        1.04164738408167
H           58.77943417668487        2.41751560055435       -1.07666462177738
H           60.69943420716239        4.24371311667221       -1.57539603929636
H           64.53233525653864        4.43349834074231       -2.93452974941707
H           64.56875345309123        6.81587325138850       -3.58193444580855
H           62.07974122508705        7.76237782343973       -0.21620087006113
H           62.05437774012741        5.38001451743211        0.43059530270258
H           65.86862986348650        4.44074365600203       -0.59733186668693
H           67.73714122843096        2.57324066715353       -0.04891860580556
C           39.83796083996127       -0.01650517307207       -0.05981760146614
C           38.60999137506291       -0.01818505923148       -0.06127630449956
C           37.26518490558495       -0.01535176186462       -0.05479055968791
C           36.04183100964505       -0.00711119204900       -0.04574683479654
C           41.18266925052086       -0.01163098975685       -0.06106951582547
C           42.40620147227953       -0.00305344500803       -0.06214911996579
C           55.84194920897711        0.05997200761077        0.00117904248048
C           54.61436607281692        0.05749570699883       -0.00373125015481
C           53.26873817765411        0.05349956090006       -0.01069872984608
C           52.04555691730089        0.04647899418271       -0.01783722334617
C           57.18770776470278        0.05610517836565        0.00723449781332
C           58.41072336763712        0.04785126961654        0.01053644326265
Ni          47.22551346419635        0.02210373994415       -0.04263625677359
C           43.81038597079073        0.00462802991924       -0.05875549761008
C           44.49097611693931       -1.18427889161738       -0.33813301957928
C           43.83058483770412       -2.42460640989349       -0.59170412745211
C           44.79201714291210       -3.31154108990347       -0.94571856197227
C           46.03617169836876       -2.60490317657035       -0.91660232104686
N           45.84350444707778       -1.30786172079424       -0.49870816254418
C           47.24766907508117       -3.14924944899960       -1.32242391603440
C           47.25692223502219       -4.52264928414152       -1.87777642253491
C           46.53710343138152       -4.82179966025142       -3.03675228376127
C           46.54606561388185       -6.10213945256869       -3.56035098552544
C           47.27365764293794       -7.11346399951537       -2.92604029563545
C           47.28252645342877       -8.43291046120262       -3.46063160326849
N           47.29107853966857       -9.49953442363144       -3.89237367262277
C           47.99253662028568       -6.81976859623180       -1.76347300722661
C           47.98496232021191       -5.53552009666306       -1.24941552456543
C           48.45054658041668       -2.46108873525357       -1.23003206805860
C           49.70332405408197       -2.97489818168369       -1.69344474738724
C           50.65239141746900       -2.07985277799012       -1.32687259623108
N           48.62544137035866       -1.23556181984322       -0.62901742269437
C           49.97596167380679       -1.01920787324326       -0.65119420004566
C           50.64026530364222        0.03891418421986       -0.02449956123812
C           49.95867523650423        1.08962393540565        0.59612434642920
C           50.61719980182990        2.15547657558691        1.28111817763211
C           49.65536839350436        3.04021293936022        1.63938574678445
C           48.41293144302120        2.51544394867718        1.16068084435591
N           48.60638790487634        1.29259785110419        0.55983113447583
C           47.20286410587716        3.19292793422676        1.23812098083710
C           47.19362264251210        4.56651811554518        1.79268266323241
C           46.45274809374754        4.86228990427632        2.93918445105021
C           46.44558499389186        6.14300641723391        3.46198031764719
C           47.17815209730848        7.15807037615227        2.83953636994366
C           47.17160813937002        8.47801826763173        3.37289703778998
N           47.16652347070238        9.54527170298865        3.80304204237845
C           47.91810689618507        6.86780312077067        1.68942132235826
C           47.92621418641453        5.58335816799863        1.17601725711036
C           46.00151240445566        2.63744517472789        0.81733726597561
C           44.75047403020150        3.33224384972178        0.83089137832630
C           43.80145079143357        2.43522658272414        0.46875523457069
C           44.47641928727764        1.20085097055946        0.22487100548678
N           45.82593709059758        1.33802072999384        0.39912887980999
H           42.76722801609223       -2.58057085411600       -0.50800953818036
H           44.67880549769835       -4.35239247533932       -1.20118787646665
H           45.98051421056104       -4.03730652239422       -3.53692686482328
H           45.99068490738641       -6.32560497259664       -4.46371209025029
H           48.55416884029835       -7.60240260360717       -1.26699557401489
H           48.53478885521895       -5.31346165898285       -0.34178323032160
H           49.83006418874111       -3.89965267350749       -2.23218329959051
H           51.71712046288779       -2.12111228134235       -1.49030086675482
H           51.67961336299690        2.20685752496084        1.45628032493714
H           49.76719462345641        3.96456158485594        2.18207419012592
H           45.89256647261426        4.07491895624084        3.43072951148511
H           45.87381244102432        6.36378572731574        4.35569864792988
H           48.48382983129417        7.65326027834153        1.20217771487502
H           48.49234810764156        5.36403398469938        0.27782660319508
H           44.62451606807130        4.37262361495648        1.08229373289237
H           42.73766202105990        2.58089489132234        0.37289863014072
