118
 energy: -210.414138346509 gnorm: 0.000832075840 xtb: 6.5.1 (b24c23e)
Fe          18.18553760538568        0.04850720281169       -0.02459550049325
C           14.79444967690706        0.06207589502918        0.10675957886228
C           15.44802372240688        1.27366999519264        0.19209084261363
C           14.77181268245758        2.53194976346485        0.28736448460931
C           15.73076315648380        3.47761509172107        0.42200434654549
C           16.99144231938825        2.79276267004302        0.41955504584212
N           16.80606478272407        1.44717336690069        0.25292635024429
C           18.21736576550300        3.42579813510263        0.59259789547978
C           18.22543403083341        4.88374366768252        0.85623941714474
C           17.61805301671686        5.39310718394964        2.00635176106645
C           17.62338797725312        6.75237181386631        2.26256671184564
C           18.23405043681926        7.63207206530748        1.36385258483350
C           18.23968578202551        9.03189996140890        1.62325744458770
N           18.24566350658890       10.16253487561932        1.83675884054877
C           18.83958517787639        7.12729955756947        0.20932375271283
C           18.83653391944828        5.76597238148884       -0.03725965199414
C           19.43010424270358        2.75289692449780        0.53617588125785
C           20.70023829939051        3.38032537566932        0.75016241680404
C           21.64305332075402        2.42605460887696        0.56355837848966
N           19.59752841176849        1.41696890281230        0.26013043669379
C           20.94728732668471        1.21830900311605        0.24612440993809
C           21.59905608586142        0.01632490714372       -0.04781739063801
C           20.91833823798142       -1.17257503216014       -0.33008202175446
C           21.58201238061367       -2.38261089877392       -0.70160582610627
C           20.61825919240095       -3.32045941902752       -0.86447745128144
C           19.36821534083348       -2.68148762933023       -0.57886675420184
N           19.56754670185552       -1.35557565269101       -0.27684770972912
C           18.14500354538067       -3.33794977323121       -0.58641225238811
C           18.12055626859665       -4.79123387149659       -0.87218168837209
C           17.43834125143337       -5.27754487623645       -1.98996736973068
C           17.41303729745171       -6.63281533477226       -2.26518350169811
C           18.06838181705877       -7.53201718208823       -1.41868726865872
C           18.04107479714380       -8.92764515910656       -1.69842119591465
N           18.01904235056221      -10.05485435646486       -1.92842585001050
C           18.74946331317858       -7.05053173262128       -0.29682360330739
C           18.77580249250425       -5.69312177831095       -0.03090574980391
C           16.93772709405370       -2.69179897086267       -0.34312610794041
C           15.66938844444036       -3.36052643655951       -0.29065050976648
C           14.73143481195543       -2.40500816417423       -0.09302587946024
C           15.42821511214731       -1.15665391553152       -0.01695525760662
N           16.77996140359108       -1.34808321006339       -0.13705314720191
H           13.71065830732233        0.06841296756721        0.13400278861520
H           13.70121120313885        2.65540939667199        0.25022238969277
H           15.60887187507969        4.54508813984196        0.50817978643246
H           17.15293331861566        4.71229720281233        2.71025585674189
H           17.15547455986663        7.13977312840500        3.15999252839950
H           19.30998623077722        7.80714443225693       -0.49132655663627
H           19.29715074328582        5.37908605198976       -0.93916663853762
H           20.84233525253579        4.41536288959373        1.01467682257357
H           22.71463865065090        2.51685529288209        0.63718533816936
H           22.64753914637861       -2.48478924884788       -0.82908777937122
H           20.73345064983705       -4.35006163610642       -1.16128753432268
H           16.93853840483706       -4.58199406348229       -2.65458759420869
H           16.88635732382319       -7.00226723337357       -3.13724380897703
H           19.25519556938769       -7.74513126443950        0.36357947863318
H           19.29456103906491       -5.32455027659500        0.84677265589990
H           15.52821955161689       -4.42479429363907       -0.38619021462999
H           13.66228294817706       -2.51498093910779       -0.00563103754596
Fe          29.04267606338783       -0.04969239427557       -0.02139244340372
C           32.43383057626476       -0.05619737537809        0.10908985536430
C           31.78038233545282       -1.26149627141622        0.25981039156334
C           32.45670110839580       -2.51279877273108        0.42259249341443
C           31.49787305080909       -3.44978185826181        0.60895065236281
C           30.23717462134695       -2.76607388828211        0.57019166993360
N           30.42241406335949       -1.43146395391798        0.33081048891760
C           29.01127415240634       -3.38857873381347        0.77794882075757
C           29.00253105090426       -4.83018193365077        1.11980569908453
C           29.60984417807935       -5.27744956597279        2.29548590842812
C           29.60310659948267       -6.62092730148682        2.62450135251490
C           28.99132370446804       -7.54718940227680        1.77458584976589
C           28.98736324052088       -8.93114007416885        2.10852957849661
N           28.98427562623213      -10.04836060978679        2.38396571287729
C           28.38553281940004       -7.10469873111619        0.59496821795811
C           28.38998646662955       -5.75861485986798        0.27545621954594
C           27.79857887636097       -2.71952098363157        0.68573088598872
C           26.52854825942461       -3.33446669505134        0.93389060776841
C           25.58557170915244       -2.39200578755096        0.69533570573335
N           27.63096560620066       -1.40068156151802        0.33726537239111
C           26.28114999986065       -1.20331170063387        0.31242757756010
C           25.62919341035078       -0.01913383831893       -0.04616588588669
C           26.30976986267425        1.15300385585068       -0.39174978163378
C           25.64590367131138        2.34138601809050       -0.82729135876007
C           26.60951394013854        3.26930745182387       -1.04012658226520
C           27.85967922066570        2.64660377801549       -0.72107383352876
N           27.66053343033625        1.33874753904044       -0.34845595602681
C           29.08289201159564        3.30164536898555       -0.76451128523150
C           29.10719127162203        4.73716863686881       -1.12914704875039
C           29.78871554783042        5.16140219648077       -2.27236242657479
C           29.81362312792968        6.49949793157868       -2.62168220652936
C           29.15864421055473        7.44377803646612       -1.82544795440542
C           29.18675022403534        8.82219775683529       -2.18040100050138
N           29.20946599498865        9.93457319617589       -2.47443824221772
C           28.47811293267761        7.02454995729559       -0.67857368900335
C           28.45217284431706        5.68381493592613       -0.33840938139972
C           30.29025963546245        2.66950890765511       -0.48720028307204
C           31.55857084692060        3.34014246317415       -0.47108215697146
C           32.49663225101126        2.39665508980805       -0.22266017488229
C           31.79995921758468        1.15414165388316       -0.07949019537890
N           30.44814152137291        1.33882912606861       -0.20922295411698
H           33.51764056963944       -0.06101841161380        0.13605948055131
H           33.52729076269128       -2.63804858475297        0.39147563917465
H           31.61980978082264       -4.51101084747050        0.75288880545397
H           30.07597612260873       -4.56023067624471        2.96154223513353
H           30.07090826538921       -6.96008074609125        3.54130354687440
H           27.91395668952860       -7.82065697994687       -0.06790283353783
H           27.92930359172356       -5.42032803802487       -0.64575286074148
H           26.38657814942069       -4.35342297130730        1.25485463743376
H           24.51400160528027       -2.47884522657431        0.77380495765491
H           24.58034517009614        2.43647090671143       -0.95985201894111
H           26.49409070278554        4.28161754386900       -1.39133519072777
H           30.28835932417365        4.43040964137304       -2.89791618785881
H           30.33984109881021        6.82055012720784       -3.51297096482105
H           27.97259907850135        7.75432203194294       -0.05708328238123
H           27.93394369525728        5.36403123805929        0.55850172480000
H           31.69961180126305        4.39776025332553       -0.62366127693932
H           33.56578956801358        2.51128494043148       -0.14152288037442
C           23.00531736353823        0.00365281784242       -0.06120847216250
C           24.22293650541391       -0.00744612744271       -0.06045865135535
