123
 energy: -218.169663030119 gnorm: 0.000674884569 xtb: 6.5.1 (b24c23e)
Zn          10.99629746376189       -0.01639658908288       -0.01579230591704
C            7.56904364711297       -0.04417445109321       -0.04651851638879
C            8.20778466091723       -0.91616123797182       -0.92148305674888
C            7.55045422565153       -1.81916352271926       -1.82832646043785
C            8.52209857462660       -2.48748705296530       -2.49900125125461
C            9.78400115403925       -2.00063349357904       -2.00950767701728
N            9.55841887285172       -1.05155860531174       -1.05677721036659
C           11.03598397250408       -2.42875713772226       -2.43842605345141
C           12.27219425628156       -1.98241397266433       -1.98804836844985
C           13.54538610170236       -2.45266134974918       -2.45833521671057
C           14.49860231162165       -1.77196083775724       -1.77201837985895
N           12.47493189299046       -1.02769085817710       -1.02798281414847
C           13.81650778377506       -0.88003284628890       -0.87678475876253
C           14.44956989189095        0.00916043959131        0.01689495394220
C           13.78718519010171        0.88924330595374        0.89790174794992
C           14.43878985037992        1.79271652385630        1.80414666586972
C           13.46260987706773        2.46014917978054        2.47103534014609
C           12.20566869068869        1.96991412205016        1.97783919400825
N           12.44085322402057        1.01700799007200        1.02344694521475
C           10.95442887484301        2.39724422623008        2.40471134851107
C            9.71735813898589        1.94854632749503        1.95399449220843
C            8.43924306669005        2.41463815103223        2.42115604983775
C            7.49055054683942        1.73012128888422        1.73414710971622
C            8.17829030922219        0.83801660850231        0.83919127244125
N            9.52399102816289        0.99569480383009        0.99790109254569
H            6.48352772988446       -0.05298748549230       -0.05589874578485
H            6.48074928882992       -1.91862246566747       -1.92850048468831
H            8.40874980198758       -3.24473953879307       -3.25920962579906
H           11.04923173815145       -3.19449831609729       -3.20804228875376
H           13.68059679489519       -3.20749784483101       -3.21712608071926
H           15.57038356265361       -1.85831595482516       -1.85660005793482
H           15.50742579155662        1.89505678827210        1.90867027300648
H           13.57204681418747        3.21835028226160        3.23064461181053
H           10.94134787457788        3.16409432412007        3.17323559850225
H            8.30012239116306        3.16991278753638        3.17904673224112
H            6.41776217720246        1.81171006359827        1.81582562634009
Zn          48.30505913149259        0.00635360460238       -0.00830773870346
C           51.73216572618847        0.04810364111738       -0.01055171857718
C           51.09321862495752        1.28188452104445       -0.06895240783830
C           51.75034202380533        2.56032345630934       -0.12963411829186
C           50.77856084328599        3.50595164418102       -0.17371714241175
C           49.51671210783320        2.81618686113009       -0.14034041681913
N           49.74255672097836        1.47292231781208       -0.07734497572460
C           48.26463931684111        3.42141241618762       -0.16688423012606
C           47.02849329684025        2.78783980033990       -0.13539187853160
C           45.75511673798000        3.45207624606179       -0.16408487966275
C           44.80204766793499        2.48639230206288       -0.11864861011321
N           46.82601811943461        1.43538880435936       -0.07300160258416
C           45.48431825116841        1.22394625225509       -0.06252351820586
C           44.85199818235384       -0.03563867773366       -0.00815032626944
C           45.51453257624382       -1.27926936614408        0.04783692085351
C           44.86303624622786       -2.55768871905175        0.10698419774276
C           45.83926709714707       -3.49999003132781        0.15166867267467
C           47.09616282615809       -2.80511632575365        0.12058088155478
N           46.86095897180000       -1.45802281252270        0.05782838673152
C           48.34742984445202       -3.40837120513336        0.14985289970624
C           49.58432793350480       -2.77280771754133        0.12123213902504
C           50.86256027543367       -3.43175482800191        0.15303759390310
C           51.81107616104187       -2.46283532269420        0.10810231861540
C           51.12312572726779       -1.20069259110466        0.04835776054686
N           49.77746410158736       -1.42440982529354        0.05822105941477
H           52.81767963912991        0.06112736230651       -0.01100774166020
H           52.82003081161186        2.70145075925100       -0.13685404590470
H           50.89177384948405        4.57777714928648       -0.22439650696236
H           48.25121384712719        4.50589431218696       -0.21747826695471
H           45.61978659754242        4.52125345017689       -0.21291037748978
H           43.73023647930740        2.60694307452642       -0.12289502023758
H           43.79441597670238       -2.70399085569720        0.11305937125150
H           45.72991704759737       -4.57209492265845        0.20153774554621
H           48.36059837094967       -4.49285880158832        0.20043418078494
H           51.00181544424223       -4.50052973997177        0.20328789776603
H           52.88388052018774       -2.57796316911306        0.11418803711450
C           15.85400523815811        0.01830493402049        0.02749602109195
C           17.07890823099764        0.02111421630366        0.02995519533064
C           18.42137813330046        0.02543273150932        0.02915482064795
C           19.65235811511734        0.02694139550916        0.02059756601101
C           20.99002413225603        0.02539359224701        0.01403529148073
C           22.22100412112323        0.02108376851672        0.00373491068899
C           23.56328760222949        0.01702290281142       -0.00131172565492
C           24.78833839864791        0.00855844286103       -0.00694101996690
C           34.51231465413218       -0.06364280463249       -0.03136981957681
C           35.73716735734414       -0.07170587897634       -0.03103526794462
C           37.07985287573931       -0.07541165295736       -0.02688356319262
C           38.31065992580569       -0.07276061480107       -0.02695094557792
C           39.64874856662156       -0.07176919737846       -0.02124286242145
C           40.87950495841536       -0.06858479044683       -0.01752510260378
C           42.22237935187167       -0.06216702290919       -0.01479574784891
C           43.44705314660553       -0.05247361552585       -0.00835035597101
Zn          29.65001983315897       -0.03081899069652       -0.01741056756375
C           26.19218985792917       -0.00267433450342       -0.01035858562726
C           26.85050209833704        0.92831670463539        0.82041679145423
C           26.19424523033855        1.88291407261300        1.66805432948985
C           27.16722083323656        2.58799079600416        2.30071812007317
C           28.42554767460321        2.06967936389897        1.84368273299184
N           28.19623406775303        1.06237412157126        0.94580687780049
C           29.67526337380755        2.52239932890223        2.24883336883640
C           30.91577792898047        2.05418933707951        1.83304161451678
C           32.18420533738016        2.55722916087969        2.27918023206835
C           33.14307196578756        1.83789089559144        1.64115971684979
N           31.12507581873993        1.04236927618407        0.93544549820281
C           32.46805922342733        0.88976005458396        0.80092798001475
C           33.10793831510500       -0.05413860275659       -0.02941317118704
C           32.45004550082870       -0.98983782837199       -0.85477985960394
C           33.10628271482703       -1.94813236692301       -1.69835384161699
C           32.13330023598665       -2.65732694354435       -2.32635437558087
C           30.87489031444087       -2.13731992197210       -1.87126453666875
N           31.10417775001225       -1.12574456431263       -0.97833621483025
C           29.62511116389013       -2.59076366751791       -2.27565700628813
C           28.38452899818368       -2.11799018576694       -1.86520676229189
C           27.11612964876013       -2.61893985705346       -2.31370681375455
C           26.15720493778362       -1.89449404759917       -1.68144133431641
C           26.83213565938690       -0.94604948459938       -0.84160044368758
N           28.17506040955490       -1.10250347941151       -0.97167534553254
H           25.12513404977200        1.99159659708438        1.76013635360905
H           27.05397790194829        3.38897446290856        3.01441376113268
H           29.68343802113255        3.33350453164927        2.97072056432711
H           32.31327889477613        3.35854474263233        2.98980505295705
H           34.21416443867857        1.93270271947358        1.72512445595199
H           34.17541771149433       -2.05589033619977       -1.79130159713119
H           32.24653085736315       -3.46185828322369       -3.03606079506525
H           29.61698992013949       -3.40562751828799       -2.99331201012920
H           26.98706651985918       -3.42246192991276       -3.02184324704687
H           25.08611431654651       -1.98629994571754       -1.76877557800917
