246
 energy: -423.641038742273 gnorm: 0.000394527861 xtb: 6.5.1 (b24c23e)
Fe          35.63100751166291       -0.01134531130048       -0.00157656204497
C           32.23725101084576       -0.03371773170362        0.02583147760986
C           32.88724694716468       -1.24033022332306       -0.12916185298758
C           32.20540897883284       -2.49200942031273       -0.26397611935606
C           33.16068811649895       -3.44917030188307       -0.32210872441667
C           34.42577518792174       -2.77907534483452       -0.23044093759269
N           34.24481446780830       -1.42681062171122       -0.12123893515265
C           35.64825396252711       -3.43982201087675       -0.18271418458005
C           36.86110874525367       -2.77795252618442       -0.06397982652517
C           38.13003130280588       -3.44290015405754       -0.03636295633816
C           39.07712065484534       -2.47618162923717        0.01498865232865
N           37.03622809731337       -1.41419208368768       -0.02782410842781
C           38.38559973865691       -1.22504902394887        0.00936888636002
C           39.04587999464459        0.00974842277182       -0.01345178233072
C           38.36956672743855        1.23590475862069       -0.03459187681686
C           39.04283045996065        2.49546579743276       -0.09386789147487
C           38.08369504676256        3.45053837633505       -0.04350032658211
C           36.82709384472248        2.76958686510998        0.05699363200490
C           35.60694741485955        3.41778164877793        0.17909019486523
C           35.59347127807542        4.89880234569387        0.25704727503983
C           34.96756857296530        5.65276815152035       -0.73632264010125
C           34.95483529747551        7.03742092444521       -0.66086569128073
C           35.55989917999833        7.68394599153005        0.40836427727880
C           36.18233306577145        6.94013722261582        1.40162278036348
C           36.20297481888274        5.55550665050255        1.32663400926010
C           34.39329344745433        2.74095086104224        0.23326814793017
C           33.12468485682235        3.38908124316530        0.40131671439291
C           32.18071269176392        2.42001176828412        0.35342765734315
C           32.87419988455981        1.18144554647616        0.16741308463409
N           34.22818909575413        1.38719821654593        0.11921909903551
N           37.01909480203368        1.40794843153789        0.03318786031660
C           35.65249901012677       -4.92212187111873       -0.25577166046638
C           35.23995694112468       -5.57314167510655       -1.41852758594195
C           35.24409282149782       -6.95852141537658       -1.48367332313485
C           35.65363761467160       -7.70774208171370       -0.38906326354261
C           36.06293944892747       -7.06619099550478        0.77198747918165
C           36.06578960053540       -5.68093193372739        0.83939363194031
H           31.15313723570629       -0.04155210286573        0.04199524562645
H           31.13325794318094       -2.60389978388241       -0.29709625766879
H           33.03305006145510       -4.51616990509707       -0.40613417753675
H           38.26785798634062       -4.51137522135824       -0.06650625108485
H           40.14941553077202       -2.58418157175615        0.04317779409103
H           40.11151632863401        2.61683097527323       -0.16780389028979
H           38.20487319629041        4.52093462136362       -0.07745241305139
H           34.50359352354476        5.14904737635291       -1.57699433348100
H           34.47011050330341        7.61417538638386       -1.44078158916377
H           35.54617078913423        8.76635437759501        0.46755767396384
H           36.65369835727461        7.44047368243729        2.24027239147169
H           36.67950387948260        4.97485836755583        2.10861307625610
H           32.98780058950200        4.44880159940409        0.54315794209766
H           31.10969285048689        2.51468796587360        0.43751234997581
H           34.92915199773222       -4.98842946868454       -2.27713735985548
H           34.92610750102558       -7.45515340008488       -2.39368166176378
H           35.65363216992890       -8.79062870770222       -0.44074220459173
H           36.38100904587962       -7.64713284378283        1.63058778739218
H           36.37542836623558       -5.18044539454096        1.75006880464262
Fe          91.31749408535799        0.05308851314934        0.02939253972809
C           94.71107896752865        0.06706274164135        0.07574007891085
C           94.06425052148145        1.28030434726364       -0.03457025739031
C           94.74892301574927        2.53477444951640       -0.12001794687625
C           93.79547072803996        3.49492383954360       -0.15405383403131
C           92.52879776152767        2.82427720799526       -0.09364932385486
N           92.70695893384406        1.46872980475067       -0.03042063585069
C           91.30768704356960        3.48565400595001       -0.02521160107633
C           90.09363337962961        2.82296473984727        0.07470637384253
C           88.82658051446020        3.48921855058532        0.13550030196776
C           87.87756850000403        2.52329639738912        0.15937374391178
N           89.91548127519356        1.45916326375301        0.06222778972354
C           88.56593203046876        1.27170550321447        0.10168194634138
C           87.90248071967864        0.04040747873523        0.03124508276372
C           88.57557007116691       -1.18511072551374       -0.04875048944633
C           87.89874100497458       -2.43887347481067       -0.16416113843912
C           88.85591630410936       -3.39718460041313       -0.16960558262350
C           90.11488773549249       -2.72469362736715       -0.04465426692176
C           91.33411231408537       -3.38059442890768        0.03824244126684
C           91.34550488102467       -4.86375192030757        0.03553410045593
C           91.96457544472177       -5.56235659587456       -1.00160102770782
C           91.97455335882566       -6.94907906376554       -1.00351896140737
C           91.37391522113242       -7.65296672225144        0.03144098215460
C           90.75909206559710       -6.96444382245685        1.06833936216370
C           90.74100379903422       -5.57772909417578        1.07065758157977
C           92.54906458651250       -2.70993826861824        0.12823147685052
C           93.81558340554595       -3.36868560123396        0.26820705216467
C           94.76128465004140       -2.40018072748381        0.27991907664474
C           94.07106956578856       -1.15214079561557        0.15484423238088
N           92.71707750921712       -1.35247773112227        0.08663341654179
N           89.92600674686443       -1.36309883201567        0.00079426273231
C           91.30775375259716        4.96961231143309       -0.05075579702419
C           91.71752363694181        5.65488250912959       -1.19465884494622
C           91.71836616942157        7.04159783492714       -1.21681722027991
C           91.31695450228565        7.75792267922031       -0.09744139966418
C           90.91079822731862        7.08212392096336        1.04512639080228
C           90.90275180990150        5.69542664726057        1.06950760700407
H           95.79503896327492        0.07206432466570        0.10073020253992
H           95.82145651059734        2.64591901931289       -0.14102865007344
H           93.92503845994730        4.56395621213071       -0.20139171555091
H           88.69118936391402        4.55838632560465        0.14574071856078
H           86.80578662834488        2.63247776860227        0.19995618675970
H           86.82920755673618       -2.55428893855345       -0.23527714389791
H           88.73177755599708       -4.46431166181374       -0.25563643980668
H           92.42533356189253       -5.01335547606708       -1.81526301348282
H           92.45354290854560       -7.48242891358362       -1.81713933034583
H           91.38526438408837       -8.73702009860029        0.03003108173861
H           90.29156674190591       -7.50982663126452        1.88064634453168
H           90.27035281762406       -5.04063742165414        1.88658599995527
H           93.94967273069123       -4.43485872278347        0.35295707318052
H           95.83156909012773       -2.50124896179913        0.36591390649418
H           92.02254524572645        5.09583031740417       -2.07222943723953
H           92.03401619167676        7.56506411433037       -2.11248350057063
H           91.32103767168384        8.84188320265571       -0.11540859424706
H           90.59938295848694        7.63732142415800        1.92298732710857
H           90.59571043287319        5.16809357609505        1.96579236243248
C           40.44642252519879        0.01888124613030       -0.01913234809321
C           41.67312919707831        0.02710856252123       -0.01792062618167
C           43.01248472866423        0.03715815636374       -0.01554274819532
C           44.24560714961423        0.04569541946342       -0.01271069950432
C           45.58006727982058        0.05157943231857       -0.00869980726070
C           46.81330135540018        0.05657144312306       -0.00502282845213
C           48.15238660086888        0.06111687519166        0.00011464555589
C           49.37940374897056        0.06462343672001        0.00573100293131
C           59.00947078443207        0.04536895717463       -0.02922118600515
C           60.23672747308782        0.04300303014549       -0.03256135996138
C           61.57562472920600        0.03989974330462       -0.03092411883228
C           62.80916231105682        0.03926295846454       -0.02480533900779
C           64.14330691004929        0.03808646969230       -0.01591045995431
C           65.37683440917554        0.03827945783378       -0.00733261682718
C           66.71568635991596        0.03582488365165        0.00304150793505
C           67.94291724246088        0.03386057662794        0.01213642615669
C           77.56885998416915        0.00070149961856        0.02655705673994
C           78.79589601175573        0.00065229264514        0.02455381628543
C           80.13497081294949        0.00380411059916        0.02271656383738
C           81.36821989432170        0.00798646983277        0.02278119045448
C           82.70267907379733        0.01440515210898        0.02405753955231
C           83.93581345169234        0.02191464044418        0.02562126483963
C           85.27519350171104        0.02842442464260        0.02831225920098
C           86.50190221492495        0.03439550180841        0.03104079936624
Fe          54.19470138993879        0.05593191033421        0.01163511845535
C           50.77866594678586        0.06318647234350        0.01108251087486
C           51.44879368640002       -1.15496253696435        0.18924987704530
C           50.77744487900133       -2.39571382803848        0.41467709070020
C           51.73205014615969       -3.35828709085227        0.41397565143895
C           52.98108045331318       -2.69983790292203        0.17501658104888
N           52.79489817501798       -1.34199446061643        0.08615784770140
C           54.18674921630853       -3.36383835309441       -0.01716334442611
C           55.39464461964612       -2.70276629927827       -0.20235628511989
C           56.63908655414625       -3.36300528001096       -0.46024980992778
C           57.59730557459864       -2.40418232346865       -0.45872325252321
N           55.58749240506451       -1.34679384629945       -0.09616575860550
C           56.93313189672516       -1.16377426995717       -0.21002105982212
C           57.61042350067729        0.04858560841149       -0.01949564791201
C           56.94224652328711        1.26316004474911        0.18893543943690
C           57.61641899289143        2.49824371591952        0.43727790215143
C           56.66176248915782        3.45981531685308        0.47504728252624
C           55.40954432269807        2.80726952794753        0.23563009384839
C           54.20147139026434        3.47502821209005        0.07934764517919
C           54.20105919727781        4.95658851870503        0.11819672580345
C           53.47864305732007        5.63568872807324        1.10029560789191
C           53.48196386208417        7.02176721429360        1.13915486425932
C           54.19835735010692        7.74492555789730        0.19514930369531
C           54.91561036607621        7.07622027090754       -0.78752046310127
C           54.92145879930899        5.69004912433610       -0.82539363964423
C           52.99183434114425        2.81845229297036       -0.11423073939211
C           51.74554856080103        3.48532652094329       -0.34377104123519
C           50.78787373970870        2.52604799673283       -0.36534667199500
C           51.45412401405427        1.27957772560388       -0.15669174098474
N           52.80073198878630        1.46034011748578       -0.04644797171031
N           55.59524957427765        1.45200448686939        0.10715319661110
C           54.18267011860079       -4.84576865391661       -0.02958077859034
C           53.44477682872068       -5.54199728627594       -0.98789984561142
C           53.44479115238665       -6.92857526474956       -1.00015128886596
C           54.17383928878365       -7.63514944357728       -0.05329736213004
C           54.90743161519848       -6.94934667237153        0.90522177193208
C           54.91633449275210       -5.56274209087894        0.91652005356167
H           49.71355232661084       -2.50181925583765        0.55298376878232
H           51.61052718174059       -4.41867819458719        0.56338756628289
H           56.75482246014889       -4.42198622634381       -0.62372326186528
H           58.65939006643120       -2.51250017139337       -0.60881586673473
H           58.68208209386187        2.60127501643428        0.56386189729830
H           56.78501089184611        4.51602353587294        0.65046402912030
H           52.92774566518773        5.07135263671415        1.84441243363795
H           52.92265826594907        7.53945669745110        1.91046203868887
H           54.19746704842176        8.82858299484499        0.22512892587443
H           55.47355686199327        7.63675037827314       -1.52930574444048
H           55.47239964298709        5.16884205654327       -1.60028339242429
H           51.62831492963807        4.54866310708524       -0.47463877059499
H           49.72473885810953        2.63795277318224       -0.50499780035827
H           52.88439097141774       -4.99093377187727       -1.73486016086650
H           52.87296146004817       -7.45966633115693       -1.75292523916426
H           54.17029535171836       -8.71917744431931       -0.06241329701167
H           55.47578910779950       -7.49680861373332        1.64885366415513
H           55.48023279979603       -5.02798977259277        1.67262574269449
Fe          72.75570013380641        0.01700519228799        0.03103729119437
C           69.34187807634920        0.02981506495176        0.02055659806493
C           70.01014387149718       -1.19101248080466        0.18906030997725
C           69.33810919464788       -2.43329825597699        0.40479511695988
C           70.29136770140805       -3.39710171741485        0.38987540787698
C           71.54049899742984       -2.73812081466583        0.15198567715565
N           71.35543884944512       -1.37871766043190        0.08026930194504
C           72.74361810583549       -3.40013482172871       -0.05989525367143
C           73.95128880965629       -2.73598103026142       -0.24083774990000
C           75.19411053994001       -3.38997938316618       -0.52080858540248
C           76.15376229264868       -2.43260772524332       -0.49377959023812
N           74.14576837257643       -1.38396755515125       -0.09954382889278
C           75.49192320278617       -1.19926719709915       -0.20782846691625
C           76.16969066387418        0.00434335436882        0.02974202114516
C           75.50083722593180        1.21228046298273        0.27139518116678
C           76.17177708366260        2.43967986158115        0.56163193164344
C           75.21894208272333        3.40364481866182        0.59439880618658
C           73.97129630864056        2.75982766237627        0.31227650803209
C           72.76919741182154        3.43386221488542        0.13084270120075
C           72.77775787825961        4.91502726835804        0.16828838189467
C           72.02702375238877        5.60376267090049        1.12202491298279
C           72.04046505458621        6.98994846245245        1.15609809912840
C           72.79608965607764        7.70386895889744        0.23599585808553
C           73.54269737551192        7.02571805738457       -0.71793004699325
C           73.53788110131522        5.63953957085236       -0.75106446795423
C           71.56167829803437        2.78180418888893       -0.08704777800646
C           70.31890228606946        3.45089792980029       -0.32984197198915
C           69.35877517239274        2.49413978717838       -0.35522490174457
C           70.02021849784275        1.24611407186657       -0.13977813843613
N           71.36611205488106        1.42362472952667       -0.02099874584992
N           74.15592959428697        1.40692548454578        0.16581745521103
C           72.73972032995484       -4.88136497954829       -0.09622097812795
C           71.98633163759332       -5.56348879113215       -1.05266142814046
C           71.98737575586414       -6.94971299023220       -1.08659897313530
C           72.73316845730595       -7.67023713216602       -0.16363276014204
C           73.48244645883048       -6.99866901487657        0.79285150442097
C           73.49009077790619       -5.61246650433272        0.82583801305899
H           68.27466921687576       -2.53945677249475        0.54663788730996
H           70.16895494917219       -4.45881304242852        0.52895479198908
H           75.30831894326705       -4.44391674704855       -0.71505226958418
H           77.21549458864227       -2.53803582638883       -0.64839878894824
H           77.23433494396365        2.53697513715685        0.71582064521904
H           75.34083140946824        4.45576308391073        0.79373510663007
H           71.44632519134869        5.04699726844510        1.84895488361003
H           71.45841268507185        7.51505490547010        1.90522309818428
H           72.80322417912760        8.78759542271785        0.26235636692187
H           74.13203469275450        7.57882707570307       -1.44074375271262
H           74.11186735604180        5.11105955925668       -1.50399199083381
H           70.20512898470928        4.51406052789946       -0.46514723944663
H           68.29704307005504        2.60865409239595       -0.50324093331484
H           71.41329470814561       -5.00156682386410       -1.78170187391397
H           71.40332446222585       -7.46962194718221       -1.83779255373779
H           72.73055905168498       -8.75398921005033       -0.18979734678183
H           74.06412516582817       -7.55700846864957        1.51783839739931
H           74.06617759963383       -5.08908188527695        1.58071139932862
