211
 energy: -335.587586206626 gnorm: 0.000539377640 xtb: 6.5.1 (b24c23e)
Fe          31.04962958599513        0.13229795471139       -0.48932707018368
C           27.84322518595004        0.39628364314867       -1.45694594438937
C           28.43007589343822        1.50731654760466       -0.88328712701193
C           27.73012621914972        2.72839325711749       -0.61941716143868
C           28.57814507652617        3.51856506559803        0.08156441537894
C           29.81635845920207        2.80288655052137        0.19257703456281
N           29.70066840651953        1.56347866884155       -0.37518617777802
C           30.98704998907455        3.33200460404448        0.72858029094590
C           32.20642527955089        2.67206325721650        0.64939251437732
C           33.46741008651503        3.28702758579240        0.94003858512812
C           34.42726605354149        2.39590284218585        0.59050520162901
N           32.40012626394444        1.40329289489943        0.16120004549502
C           33.74997198133373        1.22456007930192        0.12891965052291
C           34.40867803671852        0.02718480493389       -0.18747150848943
C           33.72421006690669       -1.17737267014321       -0.40745873937801
C           34.37455357076148       -2.44762789194703       -0.48992981734795
C           33.39500632838816       -3.38012446890461       -0.58206594005053
C           32.14957795603095       -2.67173188401045       -0.59897575189447
C           30.92354377718395       -3.26939749175347       -0.86004433218221
C           30.87091050377397       -4.74841902650864       -0.94276483877313
C           30.56381518355440       -5.38890843460725       -2.14043516694197
C           30.52348525644616       -6.77942169176419       -2.20763538653615
C           30.18596365443407       -7.45515760992446       -3.50924739766985
C           30.79073958037895       -7.52472967838249       -1.06560261843714
C           31.10536605817846       -6.89798516017868        0.13882200963103
C           31.39060645299928       -7.72465913687247        1.36338621235676
C           31.14760720648257       -5.51083109562959        0.19310414988982
C           29.77462399176148       -2.52963297349843       -1.12727203115793
C           28.53547998516073       -3.08898436562244       -1.58455569159723
C           27.70754632728031       -2.04882589333674       -1.84414756176587
C           28.41953229595906       -0.85853115731772       -1.48798185605858
N           29.68078432639548       -1.16696076390523       -1.05140660291144
N           32.37184676734612       -1.32201572562366       -0.47463600674944
C           30.96418208155282        4.68942774078633        1.32373863304498
C           30.64269699184345        5.80376954137328        0.54988898026322
C           30.62784368038806        7.07399974667518        1.11535824761497
C           30.30529938937889        8.27842653764191        0.27282805337765
C           30.93635496128293        7.22421451081577        2.46452339030774
C           31.26514880807248        6.12237737068948        3.24794822884620
C           31.58048840442314        6.29222240001919        4.70944941086654
C           31.28109159454906        4.85687537275195        2.67075345436387
H           26.82522956237723        0.49295706834958       -1.81806382854147
H           26.71105409962180        2.92569711930651       -0.91231461109467
H           28.39416719972394        4.50165764491731        0.48344611385995
H           33.59128496310846        4.28408445021557        1.33047023392831
H           35.49846307650501        2.50140487624326        0.65278459603294
H           35.44244145093822       -2.59358321946707       -0.46162150583479
H           33.49697679814712       -4.44996804070840       -0.66483671659202
H           30.37747376877318       -4.79946824708195       -3.03145379249727
H           30.32214472426819       -8.53400352036854       -3.43695115966544
H           29.14670631550757       -7.25450009705683       -3.77741734590067
H           30.81926692524927       -7.07449788301760       -4.31203038602572
H           30.75959280324428       -8.60852683357925       -1.11088934062504
H           31.72448035371303       -7.09733376552078        2.18960946949875
H           30.49031145083245       -8.25807720224506        1.67481691138941
H           32.16331461262969       -8.46532633520274        1.15109458808781
H           31.38380583590968       -5.00863892856678        1.12483139846931
H           28.33609301766268       -4.14233280619360       -1.69636192864158
H           26.69386791075063       -2.06917429837776       -2.21186153787428
H           30.42361606335400        5.67685590181995       -0.50458800287938
H           29.75151980616161        9.01828300108654        0.85149610401742
H           29.71446801077045        7.99713141736803       -0.59894004510843
H           31.22912765659917        8.74479023710194       -0.07704320406133
H           30.92377400995062        8.21394248672220        2.90940948043524
H           30.66962184956820        6.17664655286556        5.30134181617027
H           31.98988526155556        7.28321017354624        4.90625136907005
H           32.29744491864272        5.54094004465196        5.04130222240228
H           31.52779660671685        3.98840802922733        3.27163382394331
Fe          57.82663404732435        0.19642340954482       -0.19545282674479
C           61.14500031936401        0.73085435923005       -0.58195048211257
C           60.49025412060314        0.00591767538271       -1.55641319611162
C           61.14774293337444       -0.57239243039940       -2.68962200137561
C           60.23815066566672       -1.36595336315838       -3.30304779970127
C           59.01399996600389       -1.24421758513798       -2.56523390802672
N           59.17849413234185       -0.38893526651878       -1.50932390853473
C           57.84790120933274       -1.94232558771927       -2.86204211165642
C           56.65508046247079       -1.73727434319823       -2.18274000470498
C           55.41121922481254       -2.34561981789858       -2.55272497425346
C           54.44875811360289       -1.75894679125697       -1.80081385741300
N           56.45207515989099       -0.81468692995423       -1.18404856375882
C           55.10715690059723       -0.80755258665525       -0.96143662825232
C           54.43127853666382        0.04536681881907       -0.08136118982461
C           55.09546058349299        0.87575374130371        0.82684098121456
C           54.42177797968663        1.65566926695641        1.81776841976003
C           55.37906934462579        2.14788456037001        2.64113747472638
C           56.63767584925397        1.68544249391701        2.13667497723883
C           57.86377113488689        1.98024567183051        2.72040692102252
C           57.86623077791069        2.67511227363243        4.02942650272642
C           58.44091427948612        3.93557413353127        4.17155646508339
C           58.43750341667008        4.57871939296840        5.40694972344331
C           59.05770194331132        5.94350644650884        5.54031547864002
C           57.85543458614416        3.95009992964217        6.50102254960614
C           57.27258144277645        2.69037499223880        6.37389165269607
C           56.64928536095446        2.02714208091457        7.57234988325119
C           57.27845691636120        2.06017469706452        5.13655132769588
C           59.07562877207838        1.68368019763081        2.10670116066458
C           60.35938967405593        2.05194039373497        2.63063278751409
C           61.27202476083365        1.76075302316567        1.67315702647426
C           60.55223394328173        1.17250006652312        0.58440687014791
N           59.21560462038457        1.10572990243376        0.87235824085578
N           56.44776119747734        0.93607282955742        1.00235946776674
C           57.86233645667993       -2.91573462146552       -3.98184033348834
C           58.06580014207624       -2.48316696117732       -5.29139985331019
C           58.07631426560327       -3.39477245276231       -6.34143032822826
C           58.27264807833504       -2.92277506010567       -7.75683985972395
C           57.88158487008103       -4.74681701313239       -6.07315315115217
C           57.67436388404369       -5.19282299050819       -4.77167073589791
C           57.48417550844152       -6.65850110766357       -4.48836115709802
C           57.66428700796862       -4.27174713778846       -3.72910245788751
H           62.20599514656990        0.91245959672373       -0.71205618835139
H           62.18103870749129       -0.40432028181306       -2.94910299760686
H           60.37459725912790       -1.98660885492275       -4.17374982106460
H           55.29669427000069       -3.10419860229027       -3.30984917791485
H           53.38629525176692       -1.94243987028786       -1.80357996961754
H           53.35281205012942        1.78457665463513        1.87437933080906
H           55.25622557089283        2.78096657567688        3.50486052924494
H           58.87602532554563        4.42669644004040        3.30804496383646
H           59.02399949969639        6.28942120155723        6.57325894595134
H           60.09863828732765        5.92066657901149        5.21315145055562
H           58.52496062210487        6.66259625403634        4.91518679467678
H           57.85105804719437        4.44495509307851        7.46683268025238
H           56.17402420572143        1.08625924934754        7.29558878091384
H           57.41009616611467        1.82281468147768        8.32818160929054
H           55.89811528806771        2.68019460704947        8.01990879246318
H           56.83813632793365        1.07536934469849        5.02488985258424
H           60.52866627935276        2.48324571336837        3.60391111095385
H           62.34052998072501        1.90637335925300        1.69279470254884
H           58.19951377865825       -1.42535611570576       -5.48950051354406
H           58.82549693185103       -3.66131696869255       -8.33805869380604
H           58.81428790039386       -1.97707212479019       -7.78028926949643
H           57.30250060789636       -2.77201350457096       -8.23588433949565
H           57.88970451975527       -5.46126483112786       -6.88998036859992
H           58.44637622192607       -7.11880615349161       -4.25225508967149
H           57.06572988226279       -7.17100652513332       -5.35475220146090
H           56.82048831066528       -6.80551432723572       -3.63592390922027
H           57.51451245179415       -4.60761195417519       -2.70884134677118
C           37.03196283016173        0.00454606716446       -0.17547353401853
C           35.80732440522251        0.01082533444735       -0.17792218771841
C           38.37686758895615       -0.00136376070214       -0.16667103736468
C           39.60141541104986       -0.00749180710059       -0.14669891456356
C           50.45555676271594        0.00149444599584       -0.06996995924166
C           49.23289773292612       -0.00753828261239       -0.06907363490769
C           51.80466212551939        0.01249479789885       -0.07091402710056
C           53.02714866552114        0.02492123650323       -0.07278777262100
Fe          44.41468772903646       -0.00927949480774       -0.08719857249986
C           40.99996770077021       -0.00905587477056       -0.12544334201736
C           41.66928859202950        1.21278552640217        0.02903326948368
C           40.99465589232086        2.46011955054479        0.20404972009807
C           41.94963805336807        3.42200384107797        0.18876877016251
C           43.20247317717820        2.75586784683102       -0.00506649342095
N           43.01646197476370        1.39549391229284       -0.05687589634232
C           44.41266906683661        3.41368110233929       -0.18055987687145
C           45.62581815436467        2.74722557064384       -0.30915044267428
C           46.87878893557054        3.40370930059857       -0.53212960925184
C           47.83499160330042        2.44408995558231       -0.48924987800069
N           45.81186031993986        1.39323942433589       -0.18020942494323
C           47.16099036065497        1.20630453396438       -0.25420068571549
C           47.82914099347883       -0.00931787008945       -0.07032371737778
C           47.15994286608796       -1.22455510346141        0.11268802729817
C           47.83216449726544       -2.46131207750603        0.35798390042590
C           46.87521886291480       -3.42029081339499        0.40149619040545
C           45.62389912658076       -2.76469331631308        0.16667747571067
C           44.41182792216089       -3.43124392605622        0.02859273442008
C           44.40654660768191       -4.91183850389944        0.09745642471115
C           43.69168414749711       -5.56144826102685        1.10229645021880
C           43.68511342967965       -6.95043394600831        1.17925966638897
C           42.93423131397071       -7.64327760121256        2.28401155831594
C           44.39514411935228       -7.68810508480994        0.23751246493154
C           45.10890022383584       -7.05362962672793       -0.77595304839071
C           45.87961200228992       -7.86731417060465       -1.78008928153291
C           45.11482648928244       -5.66503332688178       -0.83856501046513
C           43.20471796467880       -2.77438414744293       -0.17075957958914
C           41.95630846784472       -3.44217598523812       -0.38638592071679
C           41.00255610580383       -2.48023644460723       -0.43532218319784
C           41.67317919865528       -1.23138552316080       -0.25566239127596
N           43.01788024923523       -1.41367958465495       -0.13422620306369
N           45.81131349021923       -1.41135159629311        0.03210656795138
C           44.40899140196783        4.89452225048638       -0.24182084649015
C           45.10746822257154        5.64253650475334        0.70416340643318
C           45.10305317977531        7.03269359127262        0.64783439955135
C           45.87069315453376        7.83177721859919        1.66592289887097
C           44.40025233052508        7.67158741202664       -0.36864202129210
C           43.69901536531822        6.93791694879507       -1.32185160435456
C           42.95948842326003        7.64131528191592       -2.42756565263785
C           43.70474217586031        5.54962093501104       -1.25189263416365
H           39.92855685498608        2.57070887674044        0.32048490506823
H           41.82688510096345        4.48683519418529        0.30136051786888
H           47.00138007019984        4.46085706505296       -0.70210608929025
H           48.90146314026138        2.54964284321931       -0.60639551815972
H           48.89800993625021       -2.56645179407329        0.48149283891139
H           46.99657926884088       -4.47656730601172        0.57795763626574
H           43.15075224315423       -4.97448365989241        1.83645532506426
H           42.61580038693827       -8.63850433152857        1.97341888430845
H           43.57858243286854       -7.75002098359512        3.15968955975190
H           42.05688358074342       -7.06656903929977        2.57769151005570
H           44.39052028959778       -8.77199841778896        0.29051280384493
H           46.12177095777278       -7.27283612065347       -2.66090182283049
H           45.30524547506693       -8.74083315555840       -2.09067643799699
H           46.81372656245963       -8.21822474579912       -1.33578903166262
H           45.65555111533211       -5.15870297916711       -1.63055940606788
H           41.83594872961515       -4.50812259788245       -0.49084594069357
H           39.93942123671575       -2.59149193404752       -0.57567647421774
H           45.64016375392968        5.13330376204300        1.49979472202865
H           45.45727349360386        8.83536722173124        1.76609688311823
H           46.91419813356886        7.92213395413577        1.35558101888497
H           45.84908766704938        7.34138415877412        2.63948527267429
H           44.39525391113956        8.75563711806356       -0.41792879061415
H           42.52256111128094        8.57371311957864       -2.06891444662012
H           42.16616724842119        7.01025987844733       -2.82826124898357
H           43.64828723204155        7.88108941016747       -3.24081100482418
H           43.17218939626876        4.96575177307023       -1.99458794966004
