226
 energy: -386.049715111115 gnorm: 0.000488134769 xtb: 6.5.1 (b24c23e)
C           27.61932168046064        0.03149380391007        0.05224039256510
C           28.24570139424408        0.03455522305253        1.29166710128328
C           27.62032972402042        0.00445799678298        2.57041716725228
C           28.60174650110554        0.04015865985456        3.52030319125267
C           29.85888420773365        0.09035630965379        2.85263877925234
N           29.59334470587234        0.08502749786281        1.51197336891065
C           31.12814088159249        0.13867000272707        3.43520716835050
C           32.33915908911306        0.13922138205442        2.74146138711618
C           33.63619239333048        0.15687101520790        3.39332526866154
C           34.55873813031788        0.14972965304224        2.40881775330877
N           32.49389242512643        0.13743743938601        1.38965273497332
C           33.82340783646303        0.13613779484397        1.15843013538847
C           34.45422629974945        0.12254063206473       -0.10058920216239
C           33.80306785147952        0.13208473452075       -1.34673792570060
C           34.42235554294681        0.14986965208324       -2.62552434603217
C           33.43599363312548        0.18774843329721       -3.57143600978772
C           32.18255823307099        0.18954777257759       -2.89831480789349
C           30.91331005409619        0.22294647138203       -3.48101755234312
C           30.87097197880140        0.24529656922294       -4.97469150207527
C           31.04214467814285        1.39165243510500       -5.75525719547861
O           31.24268849718408        2.65217306981620       -5.28684517541753
C           30.87810957088529        3.06640952122272       -3.98295771960956
C           31.03971711448889        1.29248439989816       -7.15256760933251
C           30.85757225220151        0.07059954423501       -7.76717766501662
C           30.66729784911132       -1.08046691026915       -7.01175830694260
C           30.67743500952685       -0.98959419314329       -5.62460962487895
O           30.52061004794813       -2.05965831149571       -4.79934279135050
C           30.29109321434346       -3.34746298534758       -5.33420634120897
C           29.70249815835672        0.16671714467376       -2.78677494047893
C           28.39944283954676        0.15575436721114       -3.43232914792296
C           27.48412907381528        0.09648402141304       -2.44383549710114
C           28.22768449564007        0.08101811851586       -1.19583352309605
N           29.55994880075316        0.12930879282681       -1.44045686758344
N           32.45600308183869        0.15474775817739       -1.55621862672450
C           31.16820002071519        0.11320249085747        4.92880746919470
C           30.92078908514253        1.22059693011987        5.74443208245953
O           30.64670933707978        2.47996110614657        5.30977131751771
C           31.04687386696384        2.96477137604129        4.04081496607987
C           30.91686532929686        1.07673038826853        7.13750554490769
C           31.16879620844212       -0.15153099787973        7.71414298916422
C           31.43695531081664       -1.26297408150496        6.92394051759876
C           31.43244848902222       -1.12817297048523        5.54019136964411
O           31.65866283385937       -2.16010858820638        4.68334683525863
C           31.97175068355702       -3.44605985869104        5.17877150262070
H           26.53496289275409       -0.00739207845229        0.07002783371315
H           26.55434371044942       -0.03793244400378        2.72821508237030
H           28.47764253267111        0.02989055858406        4.59115147458783
H           30.30060111703341        0.09535077537318        0.78496976251949
H           33.79095386358977        0.16650325720626        4.46035333026682
H           35.63386697677987        0.15478474384994        2.49238412776477
H           35.48806575281509        0.13753843201692       -2.78848887749665
H           33.55607602219366        0.20881141750915       -4.64246832562290
H           31.59717082179087        2.71932407117170       -3.23302215613072
H           30.88353445215402        4.15911821469580       -4.00043125353057
H           29.87577694643566        2.71562990393519       -3.71598730518411
H           31.18173621326936        2.19668768165045       -7.73082971048333
H           30.85625444281578        0.00538795723811       -8.84936143070319
H           30.52126562861165       -2.03071961161759       -7.50739194771657
H           30.18080997620192       -4.01632375891712       -4.47858499493673
H           29.37308874108457       -3.37534041664782       -5.93369196316413
H           31.13531598085195       -3.68443987868037       -5.94800363765675
H           28.23922285676147        0.18299611478425       -4.49844717313731
H           26.40822200483013        0.06754765697251       -2.51919433499097
H           31.75174315385662        0.13034339425287       -0.82635616510315
H           32.07130235110530        2.66213502823312        3.80117416012263
H           30.99875080276961        4.05477501250178        4.10313209861414
H           30.37206356360979        2.62401534240694        3.24832456316924
H           30.71434268961120        1.95099678077435        7.74314599892449
H           31.16456936566175       -0.25244654043710        8.79358239723049
H           31.63702677073107       -2.21827805775237        7.39026309202432
H           31.14952365402997       -3.85819941626420        5.77639590109325
H           32.13013184100599       -4.07844878951074        4.30317083355337
H           32.88704154033942       -3.43141480350524        5.78276295313430
C           61.40294506343098       -0.02368021779459       -0.10567482655641
C           60.79968912134888       -0.16315212920884       -1.34877047748132
C           61.44886107712782       -0.32551924605587       -2.60550786095312
C           60.48466269827501       -0.41097869501067       -3.56980937697206
C           59.21496860652542       -0.30735067976357       -2.93291520987487
N           59.45582489330713       -0.15755926295680       -1.59598526766396
C           57.95596998839464       -0.35160687977467       -3.53753704273421
C           56.73286225285566       -0.29650877920299       -2.86781728437520
C           55.44777669100594       -0.39064921409077       -3.53649422324403
C           54.50791579440425       -0.29107564902423       -2.57366094660328
N           56.55373093053255       -0.13021844816157       -1.52913639222194
C           55.22061033612124       -0.12590167858579       -1.32099113373062
C           54.56669325285639        0.03575005941672       -0.08405917606379
C           55.19461353465292        0.22642840289902        1.15960102747710
C           54.55152944266032        0.41069799342309        2.41310199659937
C           55.52021619264574        0.55882540552438        3.36647426044619
C           56.78608991887303        0.46683078035401        2.72360708436865
C           58.04468678001102        0.55304813281983        3.32398941481514
C           58.05931745379157        0.73287093287896        4.80734545613711
C           57.86230108186663        1.95219147893666        5.46088978423140
O           57.66358176773777        3.15461987573890        4.85804594592191
C           58.07007763218505        3.43461545455779        3.53080128862789
C           57.83446419215383        1.99880555030481        6.86059340157558
C           58.01313579735960        0.84920834916329        7.60260762952141
C           58.23056298585279       -0.37177830585114        6.97513312676711
C           58.24997450868180       -0.42563742627883        5.58615544012526
O           58.43366120329335       -1.57404836608714        4.88042315424840
C           58.66659257628097       -2.79625494969683        5.55049718371240
C           59.26760384684500        0.41298611772499        2.66349187864015
C           60.55853931890474        0.47188731067962        3.33042081111012
C           61.49186878188828        0.30826287678319        2.37097695201488
C           60.77139370582294        0.15682972603733        1.11856276396975
N           59.43482128340061        0.22899242174684        1.33217448701862
N           56.53759041847098        0.26984786494621        1.39067106662330
C           57.94241868303001       -0.54852869883621       -5.01891106382699
C           58.16741688710196        0.46558504736002       -5.95365405760397
O           58.39864872456032        1.77451555730174       -5.66638468341274
C           57.99147944408433        2.38796201204630       -4.45675109117173
C           58.19260758031712        0.16306885107059       -7.32104251543626
C           57.98428694302966       -1.13013375418493       -7.75533741114176
C           57.74045576424228       -2.15201171057795       -6.84532599350896
C           57.72369892436350       -1.85943504578538       -5.48634666404911
O           57.51713689273291       -2.79266499518010       -4.51837823630451
C           57.24429824577325       -4.13512151992033       -4.86556606368484
H           62.48769492779051       -0.05467147400435       -0.09992253010347
H           62.51805087141347       -0.36862070683179       -2.73966694447845
H           60.62827878762850       -0.53865556735865       -4.63062071817668
H           58.73530447181603       -0.07718201145184       -0.88657923000304
H           55.31213634032878       -0.52159242511810       -4.59808964120011
H           53.43459317964086       -0.31914550588846       -2.67393019296030
H           53.48287696245397        0.42588248766176        2.55515472491047
H           55.37986718349936        0.71404361687084        4.42389658326965
H           57.37199857119593        3.01534614900689        2.79811882336085
H           58.07058027422167        4.52347459155346        3.43764570614802
H           59.07787708868689        3.05572192103204        3.33153745394090
H           57.67219965504083        2.95654253468196        7.33864417452541
H           57.99072613264145        0.89647052772931        8.68550089379924
H           58.37391867662064       -1.26383975507285        7.56982056474175
H           58.80331636066650       -3.54838031708374        4.77121690076923
H           59.57162726065141       -2.74928023461111        6.16821585208933
H           57.81326201680084       -3.07977605936919        6.17856158690655
H           60.69925113455562        0.61432429318420        4.39009978151387
H           62.56618813351026        0.28907884335812        2.46878373760076
H           57.25526625639041        0.14711352620124        0.68414838774841
H           56.97359325397085        2.09391531480761       -4.18069581938256
H           58.01749780070723        3.46515910436912       -4.63972649416519
H           58.67510993870673        2.15045113628024       -3.63427525528308
H           58.37619153790887        0.96825756926032       -8.02111259989121
H           58.00429940085147       -1.35335954110214       -8.81607621652222
H           57.57470897305583       -3.16012393645437       -7.20070213596214
H           58.08414000111369       -4.58987840052501       -5.40486828307812
H           57.09270826870542       -4.66722149854558       -3.92452632449816
H           56.33608802549507       -4.21509599282965       -5.47504759128868
C           37.08455993479915        0.08902863181659       -0.14712328125775
C           35.86369708978184        0.10693348078028       -0.12774259697219
C           38.43707460184610        0.07543755225573       -0.16259154692130
C           39.65815228810119        0.06096985279512       -0.17412697433104
C           50.58421273772590       -0.01536867685464       -0.09200714702022
C           49.36299058275608       -0.01998070281925       -0.10569383490573
C           51.93639910600866       -0.00301631118149       -0.08248989641800
C           53.15746580257715        0.01614410508004       -0.08052919952906
C           41.06721206281679        0.05361279924677       -0.18313166739417
C           41.70277428884022        1.24700923424848        0.20365226022883
C           41.06679314079354        2.45402657176441        0.59824128037330
C           42.04211224357866        3.37028404163368        0.87841762465451
C           43.30339731720821        2.75025883923482        0.66126222730425
N           43.04693165898744        1.46721664224939        0.25918046917078
C           44.56541743132519        3.32437777185520        0.84127245252873
C           45.78871014081280        2.67858020564477        0.66390774463019
C           47.07530543020304        3.32732377017862        0.84624407128283
C           48.01473268327990        2.39535351329101        0.58742746573555
N           45.96781265846483        1.38272737934282        0.28861650270581
C           47.30083812683905        1.18209392575900        0.23699382474463
C           47.95436910430889       -0.01233363118949       -0.12161786237132
C           47.32158914021875       -1.20528668792568       -0.51475407676609
C           47.95586255449306       -2.41770518558392       -0.89408989942914
C           46.97965310698489       -3.32116909079741       -1.21311253846217
C           45.71980131452448       -2.68590644972450       -1.03664797423696
C           44.45758523064008       -3.24490810143075       -1.25690333582005
C           44.44072462920231       -4.67582816809103       -1.69048843652309
C           44.25610841413886       -5.64134444722116       -0.68131309167382
O           44.08394275863843       -5.14232532899718        0.57255049622975
C           43.85030571695885       -6.01136265166539        1.66209502503801
C           44.26818657507140       -7.00054828571728       -0.97273062296564
C           44.47259927199392       -7.40957303998635       -2.28529716438734
C           44.64702278824788       -6.48172421506350       -3.29150697124843
C           44.62673641138951       -5.11036910818184       -3.00546732935718
O           44.82297819520567       -4.31316733493271       -4.08872605458718
C           44.44780215123504       -2.94830946595142       -4.13069195323401
C           43.23385251757794       -2.61056211705768       -1.04463108573181
C           41.95007383647185       -3.25301032861652       -1.26164043495526
C           41.00792866553302       -2.33349373233031       -0.96530103761816
C           41.71866150869550       -1.13177687700675       -0.57346716503569
N           43.05235125842994       -1.32596705549400       -0.63538228829302
N           45.97742408491966       -1.40900922875190       -0.61346874551642
C           44.58456392238013        4.75659529994913        1.25521691599247
C           44.17374201933497        5.75435547847461        0.36109555179629
O           43.77268132113718        5.32427835596356       -0.86492443489485
C           43.36634575865769        6.25200219997059       -1.85108643703082
C           44.20022710217516        7.09568961797936        0.74083541763628
C           44.63121539106654        7.43302184946725        2.01495263745373
C           45.03657687032537        6.46267977489163        2.91867942469789
C           45.01496836783469        5.12130323542976        2.53798532598948
O           45.38138339022702        4.09883767700166        3.35402722512523
C           45.87299642835595        4.35995816334453        4.65334028038909
H           39.99911945842118        2.59195981515555        0.65750778365434
H           41.90583463956882        4.38718899659208        1.20845978952847
H           43.75852387685224        0.77877339614674        0.03851646571745
H           47.21548071930710        4.35717611219446        1.13207043188248
H           49.08827617437463        2.49347822616046        0.61569450104816
H           49.02317387029206       -2.56861474646094       -0.91657631102241
H           47.11223440952341       -4.33958610739678       -1.54052968091658
H           43.72141047522257       -5.37257157320863        2.53787942816034
H           44.70010314298676       -6.68432870656043        1.82957713907406
H           42.94088353608007       -6.60610919369897        1.51328519980571
H           44.12855823132804       -7.73913226818233       -0.19492471223651
H           44.48892183987083       -8.46829592684092       -2.51825717799946
H           44.80037021459976       -6.78869313885988       -4.31836277255901
H           44.47240975510375       -2.66111664172246       -5.18477798083778
H           43.43576337451662       -2.79853313322961       -3.74015829432337
H           45.15025277809971       -2.31868964680758       -3.57388131746897
H           41.81676888995623       -4.27139323996293       -1.58996790451446
H           39.93456294980845       -2.43207794922005       -0.99959846783623
H           45.26752599684668       -0.71910403316112       -0.39158147860017
H           44.17548747029694        6.94685459701988       -2.10604743469090
H           42.48671469104433        6.82203438139550       -1.52839151420707
H           43.10782269669360        5.66343054677368       -2.73330111202801
H           43.88966711734079        7.87378449710312        0.05652478698576
H           44.65028819531447        8.47617486602543        2.31069606629376
H           45.36387501986142        6.75458210270431        3.90750469445756
H           46.77548678676229        4.98218765872734        4.62296305588404
H           46.12141980104582        3.38847438578763        5.08455410512829
H           45.11620497404000        4.84874807859930        5.27875622538483
