130
 energy: -246.988613478104 gnorm: 0.000739517861 xtb: 6.5.1 (b24c23e)
Co          16.46678704150519       -0.10591176787922        0.01861311594164
C           13.09223031198204       -0.17417567762847        0.05294361680159
C           13.76577683833965       -0.45288384107867        1.22251834162277
C           13.11388017677134       -0.77239398156109        2.45609920912422
C           14.07188802667098       -0.77398033771227        3.41192124161154
C           15.31067480524635       -0.46607529571718        2.75872143242601
N           15.11767195659190       -0.30967566409781        1.40993329295286
C           16.49734198606302       -0.19848253385957        3.42797320240698
C           17.67328172311476        0.09520335514075        2.75534837370868
C           18.92746687146010        0.32847885753431        3.40657216950052
C           19.87325371179621        0.34890064535205        2.43771958130067
N           17.84699236509911        0.02191733940705        1.39129806655866
C           19.19565118453375        0.12893606399687        1.19944597093221
C           19.86102406522495       -0.06833769615532       -0.01307863251860
C           19.17118140713000       -0.24414148049980       -1.21475306652741
C           19.81992012528678       -0.46416552699379       -2.46811506246873
C           18.85749211118067       -0.40061268244965       -3.41951037506756
C           17.62421051204634       -0.13625547101537       -2.74180244934704
C           16.42505354438193        0.13165975837842       -3.38582898924391
C           16.40997656627946        0.22360762872781       -4.86284994526195
C           15.61547045912875       -0.64309151713325       -5.61835266524316
C           15.60719233371878       -0.55752338871648       -6.99829002535897
C           16.38892230607969        0.39907330532365       -7.64874524876069
C           16.34359028763371        0.45369178726942       -9.12983558093845
O           17.13554529737281        1.39970200037093       -9.65650836013346
O           15.66928683764898       -0.27090804195237       -9.81658258404605
C           17.18247466268781        1.26789979499539       -6.89903080607459
C           17.19344740323368        1.17706483751920       -5.51820105424950
C           15.23805264111364        0.30064242782482       -2.68591197643398
C           13.97763109141088        0.60224770645323       -3.29961266979196
C           13.03738655320549        0.50083256129003       -2.33139734055901
C           13.72623704596777        0.15570179034530       -1.12517892293301
N           15.08066243289857        0.09619846761752       -1.33863180146115
N           17.82223519443567       -0.09814781288077       -1.38101399113797
C           16.51275880015660       -0.23792818875596        4.90932505372496
C           16.29778117245882       -1.44048471139030        5.58648314459529
C           16.32092767348704       -1.47499716943260        6.96878912403729
C           16.55567202963048       -0.30784330985014        7.69790208723091
C           16.56957849705179       -0.39547381511325        9.17800563967255
O           16.81295168571698        0.77698562722777        9.78274004803242
O           16.38516281990748       -1.40998333112483        9.80080558630928
C           16.76853427904501        0.89575128259806        7.02521280181579
C           16.74855858450699        0.92766098431589        5.64166873607426
H           12.00910122035774       -0.20383170821816        0.06366551296546
H           12.05493899379560       -0.94773625227626        2.55941852313196
H           13.96006968032817       -0.94656517892422        4.46995000481073
H           19.05975190669212        0.43420223888896        4.47085977815428
H           20.93816682347424        0.48366039870391        2.53718313935626
H           20.87759062972202       -0.63507585690837       -2.58773686407489
H           18.96126635693407       -0.52337562134193       -4.48523955431496
H           15.01835433656078       -1.39568632597812       -5.11610872714225
H           14.99736555136678       -1.23057545578353       -7.59098661314700
H           17.04930419739429        1.37002828608398      -10.62320946524820
H           17.78844055060976        2.01383764135659       -7.39955077660091
H           17.80099883355735        1.85983384871052       -4.93495295269250
H           13.84389989830551        0.85353159148969       -4.33924209591537
H           11.97063821525200        0.63897648808123       -2.40718798116489
H           16.12890605979521       -2.35003139785197        5.02144383301190
H           16.15991630990648       -2.40560834949707        7.50188005072143
H           16.80562829759231        0.63512411723795       10.74319593435765
H           16.94866638291829        1.80443675224053        7.58731842385790
H           16.90334450076012        1.86439826819873        5.11832226803079
Co          32.42518928155027       -0.10353681528189       -0.03059600036581
C           35.79978563235365       -0.16724287648538       -0.07218437451313
C           35.12639172389678       -0.30893230251379       -1.26622595477638
C           35.77844285118717       -0.48380387221688       -2.52838218633694
C           34.82054182646343       -0.37498191207227       -3.47809530420765
C           33.58167117431315       -0.14457437965769       -2.79383291636809
N           33.77456060574843       -0.14465854503760       -1.43600826556626
C           32.39503779438169        0.19848867470991       -3.42783037056730
C           31.21914655701378        0.41303813802792       -2.72584540927377
C           29.96512296352539        0.72048980599799       -3.34583409508778
C           29.01926707765591        0.62941609908204       -2.38113455056949
N           31.04533110491338        0.18321179810792       -1.37929515127245
C           29.69665406787066        0.26775306456392       -1.17648521926966
C           29.03100874715802       -0.06778471590960        0.00511482287898
C           29.72053191021220       -0.38114838138698        1.17866739201419
C           29.07152823889773       -0.74374947213343        2.39830480911148
C           30.03387505271284       -0.79069746061998        3.35074166480722
C           31.26737461743512       -0.45068787416602        2.70804976292158
C           32.46662532927931       -0.25927725666132        3.37864643310647
C           32.48193264137421       -0.33858991563678        4.85638875839418
C           33.27665783372349       -1.28678930343670        5.50643235840734
C           33.28534185935746       -1.36129453699783        6.88700018196376
C           32.50379155156352       -0.48631701726445        7.64388527086250
C           32.54968837294251       -0.60319287486658        9.12134501743815
O           31.75726656254908        0.27503045813374        9.75408574778416
O           33.22435250035488       -1.40215049224919        9.71952431173890
C           31.71000322149104        0.46330211296127        6.99984299597981
C           31.69865961606765        0.53271556462614        5.61776847516516
C           33.65366209456278       -0.01088812966676        2.70287473029463
C           34.91403553469596        0.21792313693332        3.34736625054608
C           35.85438407568515        0.22857999786740        2.37402253444369
C           35.16563208631495        0.02472021787501        1.13601963997772
N           33.81114261121325       -0.05852177799535        1.34101130577894
N           31.06948026127538       -0.25566134130736        1.36076960384095
C           32.37967160935148        0.32977528001502       -4.90387419974186
C           32.59523778796371       -0.78682358756406       -5.71485765837732
C           32.57243874933816       -0.66207967642895       -7.09196748172428
C           32.33684727631894        0.58102578067691       -7.68200320124590
C           32.32155698043714        0.66394925019258       -9.16228419713981
O           32.07850241158976        1.89822675191490       -9.62824677505643
O           32.50874401179649       -0.27171847446916       -9.89776707951844
C           32.12352735937257        1.69917674063690       -6.87535880195722
C           32.14347227316429        1.57176432999206       -5.49731919254812
H           36.88291076562481       -0.19570451854564       -0.08606530087615
H           36.83741328499967       -0.64596389716572       -2.65115568278358
H           34.93252111414857       -0.42408189354906       -4.54896629253708
H           29.83295493883569        0.94843969827297       -4.39079640100603
H           27.95444387197210        0.77539691410423       -2.46437009600657
H           28.01373240156006       -0.92660043156604        2.49742705414681
H           29.92989835763053       -1.03529612368478        4.39524091753302
H           33.87364753667572       -1.97624869089214        4.92038338918367
H           33.89543215900299       -2.09825024985740        7.39776227413320
H           31.84370683235509        0.13363776055428       10.71083409714709
H           31.10420732184599        1.14638890686918        7.58340331434708
H           31.09099662490073        1.27836338815927        5.11753842741977
H           35.04765250618092        0.34792986618662        4.40901237874494
H           36.92112572197502        0.35702819386345        2.46533573618953
H           32.76433335841637       -1.75527997795211       -5.25817279754306
H           32.73353858746887       -1.52517757984249       -7.72854517379369
H           32.08694849508075        1.86792734125347      -10.59872430287151
H           31.94291985939906        2.66638703834284       -7.32922932665674
H           31.98840590647523        2.44205867512101       -4.86972807872983
C           25.06039940813258       -0.09082217593788        0.00054279693529
C           23.83164555344208       -0.09054792853183       -0.01072313613416
C           22.48808627477407       -0.08821572532071       -0.01618281092509
C           21.26393333913577       -0.08043910168037       -0.02170475346502
C           26.40394663702893       -0.08770706031148        0.00644308052274
C           27.62811113913931       -0.08091210082362        0.01210427812053
