124
 energy: -246.442361866331 gnorm: 0.000440833974 xtb: 6.5.1 (b24c23e)
Cu          15.93136472170264       -0.05010096857516       -0.01246148673697
C           12.52803953572813       -0.05603461134962       -0.15346161968383
C           13.16120759369869       -1.27825508417962       -0.32001060558905
C           12.48408305751163       -2.53048492375314       -0.50222568296422
C           13.44127511129955       -3.48177854578671       -0.63050726971275
C           14.71328419114074       -2.81605218364131       -0.54034799907787
N           14.51192248013847       -1.48132598041750       -0.34196989521421
C           15.95894589137035       -3.44482479605517       -0.61884528339369
C           15.97044190490921       -4.90287198636286       -0.88365493907333
C           16.53289269300403       -5.78639098847583        0.04272689700982
C           16.54252465988696       -7.14784997292083       -0.19986919894224
C           15.98881679287713       -7.63078270493476       -1.38222597964966
N           15.99772865137161       -9.05905856980977       -1.64301319572908
O           15.50040457044174       -9.44147963070836       -2.67120183635268
O           16.50124217197219       -9.77417405002383       -0.81489621002942
C           15.42591268088799       -6.76825959362533       -2.31874596374987
C           15.41726816551667       -5.40911398547456       -2.06401759109668
C           17.19353757487501       -2.80741433023138       -0.47184325727615
C           18.47170215968866       -3.44451940525632       -0.62109034644547
C           19.41674277152379       -2.49171068417675       -0.41999874051792
N           17.38029384536456       -1.47937988650892       -0.19644169976219
C           18.72411891008231       -1.26640785228973       -0.15537909498916
C           19.35872276446975       -0.04035294268521        0.11011871737515
C           18.70006768735181        1.18052921521516        0.33794709675451
C           19.36504984465132        2.40835813799620        0.65638087830225
C           18.40250265057538        3.35498498920664        0.79421155648358
C           17.14207357834347        2.71197211492628        0.54964101359123
N           17.35557759385200        1.38581505082450        0.28478795238878
C           15.89684892038926        3.34329356424031        0.60132551451401
C           15.87894385030345        4.80095192864679        0.86853943354398
C           15.23188334678589        5.30100931983652        2.00288090983297
C           15.20823145187918        6.65995879436122        2.25774908667397
C           15.83286023417543        7.52843111019625        1.36700067659993
N           15.80610976393197        8.95676984428672        1.62650598480447
O           15.23566445343988        9.33285482440320        2.61844310202515
O           16.35554846059608        9.67815460437294        0.83383598988168
C           16.48133374915876        7.05158253989618        0.23125115352441
C           16.50378903154656        5.69019353180808       -0.01113326107688
C           14.66417014331574        2.70994105754674        0.42025964012480
C           13.38675946487028        3.37120648511374        0.40620075903280
C           12.44697156640647        2.41732524397297        0.19508876233666
C           13.14125613505063        1.16783210359514        0.06689535372752
N           14.48473972511032        1.37516860309064        0.20216781684195
H           11.44396202367025       -0.05762204450791       -0.19928442898355
H           11.41267948138145       -2.65275744689038       -0.51720427790699
H           13.30475332658893       -4.54316984202421       -0.76096461504727
H           16.94924473955955       -5.39918130677678        0.96537598359632
H           16.97054224527419       -7.84062976948152        0.51465850471546
H           15.00506998558849       -7.16883132045413       -3.23313378900814
H           14.99345431330928       -4.72615635059301       -2.79104319228773
H           18.62384770897196       -4.48344082793964       -0.86471049319229
H           20.48914459950058       -2.59824858219049       -0.45303431451017
H           20.43171470733327        2.52032118678102        0.76709680065129
H           18.53072016102628        4.39356212918549        1.05274981404879
H           14.75894895932343        4.61357755490851        2.69450149414036
H           14.71399980323307        7.05601625522501        3.13668533471555
H           16.95646922210784        7.74887840235397       -0.44821803441849
H           16.99417899599663        5.30776107856070       -0.89873195428156
H           13.23608329438180        4.43167939342718        0.52825361746846
H           11.37767362676141        2.53619970538562        0.12060148662866
Cu          29.39282191350938        0.05165745319902        0.00792985422914
C           32.79622151611442        0.10986215821250       -0.11953588864451
C           32.16299929118335        1.30569495049631        0.18292087236153
C           32.84007378107805        2.53528496035770        0.48205345725991
C           31.88285022276558        3.46535227338399        0.71938936493452
C           30.61086449237215        2.81402278945002        0.55460149141578
N           30.81228638216692        1.50208455842174        0.23896965205281
C           29.36519631254396        3.42615416495658        0.71827264994546
C           29.35374346995469        4.87723261942016        1.01904921573534
C           28.79303507807717        5.34931255091774        2.20978073656156
C           28.78347451339936        6.70255324870561        2.49473647291090
C           29.33555434478919        7.59328493303217        1.57845629909108
N           29.32678029754693        9.01529244209922        1.87159417175235
O           29.82434723866250        9.75492061914045        1.06159824585602
O           28.82258419084387        9.36827425974480        2.90691788000444
C           29.89672480705113        7.14445416855752        0.38618426095818
C           29.90527433916743        5.78883245656016        0.11333247332355
C           28.13063171364877        2.77995065245474        0.61634688051381
C           26.85245115819064        3.42636885930172        0.71790802499553
C           25.90743095726135        2.46772713777991        0.54660601803761
N           27.94388923326977        1.44569250959891        0.37295794197075
C           26.60006257018111        1.23282297562178        0.33134082337110
C           25.96533583017507       -0.00311262941810        0.11654081761777
C           26.62392808496732       -1.22025717499979       -0.13081040227059
C           25.95886795904951       -2.47761129220810       -0.29791732930651
C           26.92149919850202       -3.40687937626255       -0.52468317716412
C           28.18204259543067       -2.71936071223538       -0.50808852588141
N           27.96850213113840       -1.39076894944942       -0.25575961824607
C           29.42737070501292       -3.32424690401684       -0.69534125156592
C           29.44510224629726       -4.77566201357091       -0.99486370531394
C           30.08862952207107       -5.66566586652071       -0.12935182352782
C           30.11188133193323       -7.02089362322552       -0.40348857985896
C           29.49048087990505       -7.49064744678203       -1.55716796618354
N           29.51681923585257       -8.91191871301168       -1.85298363965068
O           30.08596315554500       -9.63333026546674       -1.07433845746553
O           28.96872493882704       -9.28238471631320       -2.85948263679798
C           28.84550517936926       -6.62157252590995       -2.43269353871015
C           28.82336162571075       -5.26881434240841       -2.14605291002239
C           30.66012961155152       -2.66960072282861       -0.62406731299415
C           31.93768682153098       -3.27784765489120       -0.88314038542440
C           32.87748910763446       -2.31443285396319       -0.72105549196653
C           32.18306666975268       -1.10760437831972       -0.37310839326510
N           30.83951745993135       -1.35028441399642       -0.32641001071004
H           33.88030807354793        0.12844168989984       -0.16116913432073
H           33.91147401274904        2.65446897293627        0.51334848343107
H           32.01934511041410        4.49852183072559        0.99532632975461
H           28.37796087964346        4.64465082452936        2.92092443990322
H           28.35684641390996        7.07719766326661        3.41740741143611
H           30.31632037161220        7.85843113196714       -0.31227255558825
H           30.32771747075931        5.42794915051182       -0.81721392428122
H           26.70031942835890        4.48068948517903        0.88260203376146
H           24.83500900954668        2.57869401435229        0.55640716086467
H           24.89210012100267       -2.62276697179609       -0.23874138189803
H           26.79328415548368       -4.46646960242807       -0.67556527466417
H           30.55908489129667       -5.28874081048855        0.77128652770904
H           30.60327852608476       -7.71854278506272        0.26393394786815
H           28.37283716997870       -7.01218148499531       -3.32581264215262
H           28.33562838262757       -4.58052268951107       -2.82644446390497
H           32.08837582525011       -4.30703965321495       -1.16644773779399
H           33.94689082657663       -2.39696494558008       -0.83353489169734
C           21.98686761102408       -0.03519665091944        0.15432907007329
C           20.76522629744515       -0.03425010621060        0.14224691263914
C           23.33719725602278       -0.02783152608611        0.15487188614065
C           24.55882630749686       -0.02055030395782        0.14379016814695
