225
 energy: -349.914966648905 gnorm: 0.000409969847 xtb: 6.5.1 (b24c23e)
Ni          35.57062841900419        0.06541367462784       -0.02959974223789
C           32.17402949323724        0.13172223125138       -0.11543183996387
C           32.83520560358291        1.26600550491819        0.30864862978009
C           32.16995907447377        2.46990137441613        0.70661591618025
C           33.12968907767676        3.31727544703627        1.14656829596841
C           34.38056329126000        2.62947014391974        1.01619238097683
N           34.19239185806741        1.38092983551599        0.47780016187916
C           35.59209895027124        3.15092850560605        1.44323856825072
C           35.60650947116665        4.50152600589483        2.07327170841740
C           35.82788893981471        5.63347768333225        1.28263870386908
C           36.05458943219223        5.48402020121313       -0.19817123425025
C           35.83955649647657        6.88934168243009        1.87683023899957
C           35.63467927296131        7.03486640115073        3.24568530470214
C           35.66857395355330        8.40212296930356        3.87355512657765
C           35.41753022525544        5.90207572049030        4.02216267840839
C           35.40066790657576        4.63539562431257        3.44879599236424
C           35.16228389475874        3.41364254869561        4.29553038939090
C           36.79444995621451        2.47664202863070        1.29624786143994
C           38.05197938014884        3.00062246438106        1.73555294932844
C           39.00276946740393        2.12628247248911        1.32701615263502
N           36.97076631159730        1.27410895296228        0.65077351344957
C           38.32417291997852        1.07062657745170        0.64304008310582
C           38.98608632311244        0.03145803494599       -0.01321375135778
C           38.30952149817382       -1.00458993618492       -0.65928025464283
C           38.97370800562779       -2.09071440143914       -1.30898330168593
C           38.01092712318152       -2.96398624086565       -1.69084692382086
C           36.75973530712037       -2.40402651739751       -1.27886142353706
N           36.95279358413836       -1.18601257116209       -0.66849991670662
C           35.54365761979403       -3.05164560367569       -1.43416196117766
C           35.53843905949804       -4.42267319501703       -2.01856007517514
C           35.37893005951392       -4.59816549165830       -3.39667852799556
C           35.20483681669980       -3.40020637333048       -4.29172305847469
C           35.38293654734470       -5.88269365235102       -3.92564319824504
C           35.54257881530253       -6.99487373542309       -3.10343359214553
C           35.54532077425167       -8.37654352365011       -3.69999832716867
C           35.69776999528948       -6.80833755320224       -1.73489865248356
C           35.69777816460400       -5.53159181814984       -1.18353330599750
C           35.87157622874228       -5.33763497372888        0.29924739998185
C           34.33480907498627       -2.47764421478204       -1.07231281719301
C           33.06589642981407       -3.11999204748951       -1.25162798103616
C           32.11882740629253       -2.22051569577720       -0.89564080656166
C           32.81012282707604       -1.03372696673396       -0.49084754387705
N           34.16854672532948       -1.20721867112400       -0.57952061247385
H           31.09095575359272        0.15452662298006       -0.14704227456710
H           31.10372606046329        2.62360578241468        0.65499754395266
H           33.02023506642372        4.31803223247854        1.53259057908714
H           35.23110632069551        4.93330307716794       -0.65612598054098
H           36.97384701248830        4.92501693766779       -0.38430370339110
H           36.13609858603434        6.45802972787146       -0.67968885562885
H           36.00977127339085        7.76839288508704        1.26377530637147
H           35.18931717488906        8.39440039490874        4.85251419234236
H           36.70342934667277        8.72784498004439        4.00137031560263
H           35.16240858697367        9.13053031448650        3.23889371272699
H           35.25771043011778        6.00537135894674        5.09046161925143
H           35.98181532568766        2.70274427970865        4.17602616414977
H           35.07994482018564        3.67994895070318        5.34885451103608
H           34.24088993146749        2.91491096607071        3.98845675930188
H           38.17470721664554        3.92359457291913        2.27884115494214
H           40.07104648452274        2.18148730738496        1.46163412804921
H           40.04154707165326       -2.16750836083113       -1.43629154777740
H           38.12139337025643       -3.90665831925658       -2.20198961589477
H           34.29209695389946       -2.86175750048072       -4.02914066704399
H           35.14341805526552       -3.70107331567722       -5.33714395753953
H           36.04366716737117       -2.71201403601002       -4.17313360299046
H           35.26095303072847       -6.02058296051580       -4.99507358606848
H           36.33942710958931       -8.46679143320338       -4.44345974278237
H           35.70009394844907       -9.13404310117209       -2.93182821755906
H           34.59474004221335       -8.57559506246495       -4.19846313902496
H           35.82200998511412       -7.66855941667254       -1.08525252165557
H           35.04391179238205       -4.75410686729463        0.70629495894497
H           36.79549893227171       -4.79262976817673        0.50283889281088
H           35.91194067809905       -6.29643557025952        0.81525110479882
H           32.93698607144590       -4.12745196368204       -1.61345459262507
H           31.04590755402449       -2.32984614192940       -0.90145956284648
Ni          57.32803097607079       -0.03172198974812       -0.08061539124443
C           60.72493175435586       -0.01348007071476       -0.14881647178051
C           60.07371917567635       -1.16481421717948       -0.54168859194383
C           60.74886719501234       -2.35660295964753       -0.95890063033622
C           59.79045237221211       -3.23340414161556       -1.34033122760263
C           58.53075068766582       -2.57238756894292       -1.16351972829251
N           58.71350873408823       -1.31422355622690       -0.64573634208788
C           57.31649659459548       -3.11534459370573       -1.55433099896446
C           57.30487863522018       -4.47039201431203       -2.17468184775899
C           57.48303790536422       -4.61126967550410       -3.55369827305933
C           57.69030908853301       -3.39259837193889       -4.41297937175536
C           57.46551969803043       -5.88144270415183       -4.11839321295928
C           57.27533973688428       -7.01148064292418       -3.33011925817161
C           57.23623568606202       -8.38062282844105       -3.95352983403396
C           57.09985692242800       -6.85915071502778       -1.95835124593952
C           57.11259588304216       -5.59905616423617       -1.37240705132487
C           56.92032578235800       -5.44205434886607        0.11246864327991
C           56.11031853818536       -2.44970350189060       -1.39715575874933
C           54.85366594954350       -2.97581561743934       -1.83650791714933
C           53.90134923955445       -2.10164813350194       -1.43093045069843
N           55.93157832048488       -1.24844490588792       -0.75055017525122
C           54.57735699211635       -1.04832452911001       -0.74049085867916
C           53.91345721737635       -0.02895903703195       -0.05604744414165
C           54.58851391924471        0.98418739092326        0.62662883078746
C           53.92425170737659        2.02855095324215        1.34152993086636
C           54.88500657574752        2.88910693113402        1.75630588272744
C           56.13451966293203        2.36688857532637        1.29238666327311
N           55.94353119246975        1.17837148486065        0.62568271248725
C           57.34336032626184        3.03020875400042        1.43802412815728
C           57.34655986633850        4.37088605938772        2.08893669591620
C           57.10149306014155        5.51528206007805        1.32346180591614
C           56.83781670623630        5.39007896006642       -0.15348191724778
C           57.10302733537090        6.76100137204325        1.93855345114105
C           57.34332875485526        6.88434436067835        3.30397036546309
C           57.35233302753782        8.24420942142830        3.94855610654626
C           57.58832447876444        5.73995773263917        4.05446279850219
C           57.59275685721824        4.48295347761006        3.45979349393456
C           57.85870780639646        3.24838353640168        4.27933377264181
C           58.54758508552236        2.50322484309708        0.99706502935684
C           59.80631354727868        3.17583497286613        1.13204482708496
C           60.75657441960550        2.31980961715808        0.68817568332377
C           60.07759874663250        1.12674276504045        0.28084977757458
N           58.72159105952444        1.25739335868023        0.44787112800639
H           61.80839473076579       -0.00631935526235       -0.17370813023472
H           61.81981601381876       -2.48398563486001       -0.95626489053188
H           59.90615074969134       -4.23644406930512       -1.71853133503469
H           58.59403341548867       -2.86242269700182       -4.10637553958916
H           56.84861915081017       -2.70577372875403       -4.30635791600021
H           57.78661789260406       -3.66812310763464       -5.46272257734263
H           57.60334596204357       -5.99067211483477       -5.18917016705952
H           57.64635490726202       -9.12814552849797       -3.27385294133471
H           56.20328959072180       -8.65724613049203       -4.17754777549959
H           57.80289950186494       -8.40107228934742       -4.88461492769099
H           56.95176923145804       -7.73551010916901       -1.33578158094839
H           56.01606263726979       -4.86567018271202        0.31746085368731
H           56.83219029735110       -6.41326008463125        0.59846538376444
H           57.76392818338292       -4.90555128070363        0.55047454206490
H           54.73274672352726       -3.89883739437605       -2.38015556925079
H           52.83338404063814       -2.15711575687339       -1.56824930464573
H           52.85782083498683        2.08652498710328        1.48949055232910
H           54.77409463616197        3.80131645319530        2.31996616443554
H           57.65418195769194        4.85457330516113       -0.64136484148685
H           56.73674186942513        6.37175559245105       -0.61532054470054
H           55.91881318599468        4.82675145294793       -0.32698501550903
H           56.91264235183433        7.64959771364660        1.34550418941436
H           56.51773096425792        8.84648677001065        3.58721755191653
H           57.28384909698111        8.16294410575684        5.03332800309658
H           58.27799207857727        8.76873330546212        3.70120799444707
H           57.77728989439268        5.82585538726314        5.11953948469914
H           58.76704411791182        2.75245995173128        3.93152676618527
H           57.03362479940641        2.54084278888067        4.17951029280392
H           57.98037269197935        3.49902420021958        5.33268495049099
H           59.92717964531468        4.17296931594913        1.52399970098461
H           61.82464099662145        2.46118301504900        0.63921712592563
C           40.39704332288856        0.02229849587685       -0.01406481434469
C           41.61226459790418        0.01108220270111       -0.01571768476257
C           51.28673181040414       -0.03342252963806       -0.03420259891527
C           52.50183824428744       -0.02760576311894       -0.04749496141044
Ni          46.44897096905805       -0.03890247829723       -0.01783596445356
C           43.02308292255715       -0.00400048318175       -0.01609131162133
C           43.69647709742198        0.35572008615195        1.15221342169744
C           43.02452205794868        0.72212726071170        2.35901632654475
C           43.98393955026578        0.91558192467060        3.29550480491604
C           45.23970916555409        0.67286918673013        2.65375885549384
N           45.05329316089824        0.34187363747239        1.33118861290773
C           46.45716734478606        0.74557901828058        3.31177017933408
C           46.45685428268904        1.04118663901050        4.77273588662335
C           46.54338494987369        2.36055430984917        5.22464442127033
C           46.63457608147270        3.48992080873864        4.23337814413339
C           46.54226293375404        2.61559367272330        6.59147181446878
C           46.45500562793326        1.57706248930990        7.51219440909491
C           46.47505961706081        1.85884771428649        8.99032042199304
C           46.36732915775207        0.26732499425428        7.05036975509685
C           46.36629827577782       -0.01110236251516        5.68912054200192
C           46.26561734724290       -1.43013410838421        5.19657382085916
C           47.67338196362176        0.55016349683842        2.67703094783395
C           48.93469528904437        0.65694540306859        3.34462178424692
C           49.89037812471491        0.45705189799828        2.40562811446392
N           47.85314257773148        0.27187858797159        1.34125988477771
C           49.21014722654566        0.22028585519639        1.17124330505979
C           49.87511879405366       -0.03827970546485       -0.02800127110240
C           49.20299045262567       -0.30728759204719       -1.22105732789782
C           49.87598172810309       -0.56050900202695       -2.45615564109033
C           48.91498437574460       -0.77964595570879       -3.38531767693142
C           47.65764115329638       -0.66300685454450       -2.71200152149476
N           47.84505111363996       -0.36444670491524       -1.38168651649191
C           46.43755804982135       -0.85835338376378       -3.33914877425999
C           46.42899033182903       -1.17748104955472       -4.79510630351279
C           46.33755592246817       -0.14031046878719       -5.72853762467740
C           46.24969236367028        1.28763426504173       -5.25982935584285
C           46.32660935595375       -0.44190961624752       -7.08479613741420
C           46.40350310510670       -1.75978573375169       -7.52489769723636
C           46.40780140900045       -2.06675111579245       -8.99813310014707
C           46.49448358634586       -2.78286608372161       -6.58739801050514
C           46.50758892522183       -2.50457724431679       -5.22518455293308
C           46.60303623773532       -3.61700083371068       -4.21534833748525
C           45.22267664706442       -0.75652830530363       -2.68023571456622
C           43.96150476450823       -0.98024739188492       -3.31827791637084
C           43.00697967647343       -0.74978884456717       -2.38515729633964
C           43.68762786011639       -0.38406936930537       -1.18304955532668
N           45.04427947043428       -0.40344048561813       -1.36225862682257
H           41.95476447509181        0.80647606353192        2.46288479709365
H           43.86852490496808        1.19631546879940        4.32984417275275
H           47.53374021202963        3.38642695655256        3.62298045340937
H           46.66686798369527        4.45286767723701        4.74214634801099
H           45.77319362195269        3.47635131634339        3.56300478835384
H           46.60859442624842        3.64028488571089        6.94228510110765
H           47.48658663617751        1.72455508467515        9.38062432928367
H           45.81436170658326        1.17441288639046        9.52349242127584
H           46.16340075100891        2.88281535876307        9.19671216576277
H           46.29693830156253       -0.54880706140732        7.76204000123676
H           45.36825039051555       -1.55629389470403        4.58776881345770
H           47.12772217596964       -1.67848508814663        4.57482951581578
H           46.22244538506475       -2.12965434360277        6.03081261898722
H           49.05587599502818        0.86294152330387        4.39577303495279
H           50.96214535599332        0.46154552942355        2.52273038253229
H           50.94694038374291       -0.56477513097583       -2.58016965528632
H           49.03009811342778       -1.00294928613735       -4.43360326897973
H           45.35556607282113        1.43150352047253       -4.65019710976259
H           46.20914702165458        1.97316790250205       -6.10573344995058
H           47.11602027942074        1.53955667542076       -4.64542592435107
H           46.25487593628264        0.36234586178688       -7.80973492245848
H           46.09134166185891       -3.09321185499324       -9.18378804260351
H           47.41549030573896       -1.94180281257913       -9.40121706945251
H           45.74323109310416       -1.38971461615019       -9.53594230547929
H           46.55386318992168       -3.81364421346342       -6.92120163163313
H           46.63022329721239       -4.58860218747834       -4.70768544519039
H           45.74623090239910       -3.59012844107534       -3.53953736899124
H           47.50647849634615       -3.50480204420011       -3.61284732791807
H           43.83933339384951       -1.27362637312431       -4.34832043959208
H           41.93551520376592       -0.81043653664941       -2.48797595213907
