476
 energy: -826.454260649134 gnorm: 0.000218624748 xtb: 6.5.1 (b24c23e)
C           80.40886674741753        0.06341344304545        0.05816695199105
C           81.02200747606334        1.29306204289944        0.26062543072967
C           80.37458345007327        2.54707305545762        0.44485534981819
C           81.34014353300124        3.49857082635945        0.61601326869778
C           82.60880077098953        2.85431797597725        0.55280007687845
N           82.36615147208630        1.52926546737848        0.32746468258244
C           83.87453612007006        3.43923096506750        0.67289356333547
C           83.91072870675914        4.89746429371245        0.93504375005214
C           84.52158986688524        5.77789924123807        0.04259790872357
C           84.52538220291493        7.13426990937205        0.32683791574979
N           83.97317698392786        7.64655737646581        1.42204489044812
C           83.39185980285406        6.81420243153416        2.27971642849481
C           83.33277565156192        5.44383578676643        2.08053175933428
C           85.08808232144303        2.75596081147372        0.56623737173153
C           86.38699605068413        3.37561977046457        0.75931202299275
C           87.30460567854593        2.40351277212315        0.57874455002318
N           85.23840250082057        1.43037268231382        0.29391520033453
C           86.56501361463245        1.19116713379684        0.28429034199954
C           87.19845615660532       -0.04123110641885        0.02405784456435
C           86.55891210009257       -1.26847162074642       -0.23451632479716
C           87.19929468944551       -2.50104857322203       -0.53011405406065
C           86.22936693113724       -3.44704064901500       -0.71419607719243
C           84.96555129297425       -2.82168008520256       -0.52609725820133
N           85.21680606613205       -1.50428349090119       -0.24678158902454
C           83.70094457249145       -3.41083610509637       -0.62780173197080
C           83.66242191432109       -4.86172085295397       -0.92427804040961
C           84.24639581675217       -5.79522547587408       -0.06835944873975
C           84.18271819352667       -7.14152143592730       -0.39144892990365
N           83.59113428999703       -7.59551800042348       -1.49162833740858
C           83.03326105822804       -6.71255262960694       -2.31384151944654
C           83.04087818204856       -5.34763316934046       -2.07445433594944
C           82.48642376810913       -2.73387557383351       -0.47285382664920
C           81.18079982852174       -3.37393439382251       -0.52111033905811
C           80.27017631938701       -2.39897173170170       -0.32762250511617
C           81.01824058094911       -1.16631932624578       -0.15260493381433
N           82.34971871264001       -1.40797302420441       -0.23597295559278
H           79.32359791509013        0.07478122064056        0.06524229970864
H           79.30581281717272        2.69001604391398        0.43830060353082
H           81.19271799656703        4.55590904056545        0.76486051887875
H           83.08895539853643        0.82526087498615        0.22170505547459
H           84.97322462431254        5.40666407266774       -0.86958430186510
H           84.99110381614251        7.83952576216458       -0.35527423753634
H           82.95307157532443        7.26194945387096        3.16663702988721
H           82.85988209864095        4.80279701989557        2.81509008972142
H           86.55190902074366        4.41007430929035        1.01332875203254
H           88.37881045029008        2.47219184275158        0.64107249349418
H           88.26680167884054       -2.63529197930832       -0.59791061534772
H           86.37341518239379       -4.48455960105722       -0.96776928296605
H           84.49700578611282       -0.80814065899391       -0.08263799481846
H           84.72739659707068       -5.47335770123734        0.84768995734187
H           84.62619511514268       -7.88702781675915        0.26214493850415
H           82.55955300857201       -7.11359080779929       -3.20511383911946
H           82.58493108353099       -4.66386465442670       -2.78048202927215
H           81.01011753045535       -4.42810399641901       -0.66887927552181
H           79.19473050086664       -2.47593285069973       -0.29391420388750
C          199.32411625335186       -0.08781659264809        0.02667891835791
C          198.71007671115129       -1.28151586275150       -0.32968758118118
C          199.35645213608288       -2.49149903573789       -0.70888006346917
C          198.39007154173399       -3.42181308356729       -0.96887172128032
C          197.12193964174807       -2.81302964097630       -0.74578530306406
N          197.36570094247355       -1.52172755861072       -0.37357761091757
C          195.85567116274842       -3.39180593081038       -0.88801504093290
C          195.81767960444327       -4.81994103671444       -1.28198932069518
C          195.20122985882625       -5.22741500253547       -2.46471163036567
C          195.19618514996048       -6.57311776632255       -2.79571143611121
N          195.75223914462950       -7.50893360104255       -2.03288008090450
C          196.33865770839864       -7.12982020113810       -0.90206801947157
C          196.39940695162971       -5.80829403612527       -0.48860366523893
C          194.64289570248513       -2.72870830713798       -0.68677956479528
C          193.34364515768112       -3.37122096750742       -0.77323351177893
C          192.42686737484877       -2.41470694282760       -0.51973322097127
N          194.49371965573360       -1.41373051926502       -0.36669471792955
C          193.16732779395576       -1.19252445462759       -0.27192511280203
C          192.53492604115823        0.03640688406425        0.00690891469003
C          193.17595343106171        1.25725588093516        0.29099683913374
C          192.53762363503756        2.50077525452585        0.54151092777673
C          193.50845143236981        3.43055616303343        0.79193250464763
C          194.77059263538948        2.77931700002012        0.71124020597936
N          194.51782381608874        1.47046857692601        0.39566023933330
C          196.03532360083904        3.34899231346443        0.89244787652226
C          196.07465750777743        4.78371835120026        1.25883842237465
C          195.47380203764766        5.25205776546966        2.42711601337052
C          195.53966907950280        6.60366898257902        2.72654885336758
N          196.14887475784946        7.48996633455725        1.94561509793110
C          196.72259153922013        7.05259656307830        0.82917945724399
C          196.71421722971118        5.72050095982079        0.44723569059234
C          197.24890958996909        2.66691498998485        0.75339596136142
C          198.55421015461965        3.25897910467393        1.00305897505252
C          199.46395070891504        2.29455475772040        0.75913322918181
C          198.71552905045462        1.11186844638554        0.37085113243449
N          197.38468447559237        1.36998058464074        0.38946684375659
H          200.40933461640216       -0.10335392020712        0.03310738236418
H          200.42512340851218       -2.61846280040616       -0.77645546080412
H          198.53665960818569       -4.43882564019207       -1.29452467607353
H          196.64348343915225       -0.84103458319789       -0.16309298191986
H          194.74631110888359       -4.49795174230457       -3.12411278171245
H          194.72624453034439       -6.91363389088035       -3.71373677777656
H          196.78039411495399       -7.91731884652493       -0.29845470383572
H          196.87646715592606       -5.54841800205784        0.44895075220294
H          193.17802777066146       -4.41521979760244       -0.98408391579142
H          191.35270765525880       -2.50314303554579       -0.49032761972259
H          191.47086589507978        2.65549788820407        0.52441751179257
H          193.36624594127204        4.47752862681627        1.00438552490724
H          195.23639662892728        0.76763115387832        0.25663253891628
H          194.97811218182437        4.56445738895578        3.10211364078560
H          195.08339611723289        6.99052564805621        3.63307892618088
H          197.21041046497774        7.80056940522828        0.21098432888748
H          197.18360211352086        5.41212813761941       -0.47930344981611
H          198.72528535581705        4.27094773845991        1.33304046141004
H          200.53891321736177        2.34536342453093        0.83341738713375
C           92.40018523063569       -0.08677232279919       -0.01697319772253
C           91.17170263349861       -0.08332120913494       -0.00617816111980
C           89.82780670600073       -0.07400519160520        0.00497759337377
C           88.60388338669308       -0.05939219828853        0.01536722183776
C           93.74395573437432       -0.08840897846183       -0.02694038306713
C           94.96814712773045       -0.08338567358376       -0.03595919984164
C          108.43129478539964       -0.00930142409928       -0.03606171653537
C          107.20245308249004       -0.01842646540452       -0.03960372226836
C          105.85938429498921       -0.02709981767123       -0.04291182904372
C          104.63495523476890       -0.03829838250036       -0.04430885805580
C          109.77436294800187       -0.00333912574935       -0.03045125001237
C          110.99880763418929        0.00397517194757       -0.02471568726048
C          124.45752857008300        0.00169574276787       -0.00156192425399
C          123.22867479498564       -0.00125053327418        0.00085308936991
C          121.88570490839358       -0.00215587223610        0.00274835706801
C          120.66124036065160       -0.00525060589106        0.00507946177046
C          125.80049537927266        0.00340162521005       -0.00381012260716
C          127.02495093445239        0.00787303595781       -0.00681314355064
C          140.48145771430362       -0.01131107566864       -0.01638411825247
C          139.25261660639990       -0.00418996432033       -0.01816461499373
C          137.90968627482610        0.00324887566363       -0.01785159073773
C          136.68523748712039        0.00657518033040       -0.01813015448120
C          141.82437658489201       -0.01740599656925       -0.01469488541645
C          143.04882694808197       -0.01901629752608       -0.01428800790148
C          156.50535835339051       -0.00409468538644        0.01574151992109
C          155.27651095733040        0.00128920410476        0.01543327758290
C          153.93355496920637        0.00541038965433        0.01345311208410
C          152.70909020302636        0.00491606471575        0.01021139273381
C          157.84830360137906       -0.00981110073993        0.01395747725147
C          159.07276708454629       -0.01195775305873        0.01041876774829
C          172.53171047641482        0.00257379416467       -0.02808403101615
C          171.30284657494030       -0.00563962978803       -0.02752050828451
C          169.95977660488109       -0.01063583633240       -0.02512887423724
C          168.73530278939140       -0.01631458737247       -0.02310583142942
C          173.87477779509490        0.00970484542833       -0.02898162342237
C          175.09922254849567        0.01960183210915       -0.03015921199113
C          188.56183585519298        0.08172271784205       -0.01209864217369
C          187.33327598706435        0.08331402517097       -0.01941410835774
C          185.98957226803623        0.08163861366736       -0.02631079035673
C          184.76532920555704        0.07390848755392       -0.03136874057069
C          189.90567255263787        0.07306086653110       -0.00419366487732
C          191.12966759597003        0.05828888382712        0.00172865471994
C           96.37269052518531       -0.07936981775137       -0.04205506006096
C           97.00345331579229       -1.31273562717412        0.21185985478660
C           96.35834142578975       -2.54347747700704        0.49847913509351
C           97.32588882309624       -3.49461794026095        0.67484992199644
C           98.59051798595840       -2.87219971765554        0.49134759055712
N           98.34497815646050       -1.55239322153797        0.22232739821051
C           99.85262206062569       -3.47135535558016        0.58494934382261
C           99.87157225722214       -4.92717076230775        0.86606476443778
C          100.46205176427445       -5.43122803604909        2.02438094621598
C          100.45090386120667       -6.79883221872337        2.24846056960081
N           99.90364512737389       -7.66679579358247        1.40358007484205
C           99.34199532558847       -7.19506823015795        0.29530038924432
C           99.29820398287728       -5.84455936359076       -0.01364816134435
C          101.07568778488790       -2.81575335561829        0.43836313029415
C          102.36328295101096       -3.48559217404434        0.48219805722730
C          103.29776164798631       -2.52908318143065        0.30451321653496
N          101.24884922400919       -1.48297207154046        0.21865031877663
C          102.57932273114787       -1.28000105448289        0.14516860277480
C          103.23114464587294       -0.04471775397372       -0.04615206390020
C          102.60014401597277        1.19973899107325       -0.23907511229168
C          103.24524854239510        2.45301644618588       -0.40101702570428
C          102.27777848866516        3.40504607390261       -0.57248012575607
C          101.01322365449293        2.75726400902446       -0.52936406886972
N          101.25889439287060        1.42715324526612       -0.31605938865898
C           99.75146561038810        3.35017695863244       -0.65776633234211
C           99.73350180141421        4.81059664134702       -0.91333264146293
C           99.13645304718808        5.69463770996791       -0.01533027731078
C           99.14973151764612        7.05224192626950       -0.29370051147828
N           99.70539830534301        7.56187070389282       -1.38830263816284
C          100.27354474853486        6.72594001309318       -2.25126184355718
C          100.31549817951698        5.35406080172023       -2.05806938294095
C           98.52814928059573        2.68455660936532       -0.56505355294237
C           97.24066919838005        3.32612250598118       -0.76301049865879
C           96.30613071206903        2.36883862768163       -0.58992324025487
C           97.02434319968239        1.14432698468275       -0.29609470626133
N           98.35518219589386        1.36060635347257       -0.29840073967952
H           95.29041065046550       -2.67436879908880        0.56535094721766
H           97.17846624485742       -4.53379529049875        0.91940335152120
H           99.06411950507592       -0.85488104761263        0.06234058830051
H          100.90974198173798       -4.75960803086985        2.74711807373836
H          100.90015445080043       -7.21449758831507        3.14563761920618
H           98.90671198445155       -7.92889515555440       -0.37671521495468
H           98.84007576757594       -5.50718452646082       -0.93580208071039
H          102.50965187206448       -4.54500005628546        0.61643216824590
H          104.37051349380725       -2.63290045792340        0.27332604486835
H          104.31305468765180        2.59955207342632       -0.38158458259048
H          102.42523787029788        4.46400900528665       -0.70761474153761
H          100.53985852906497        0.71746848203386       -0.22332311919844
H           98.68226925349457        5.32511975615989        0.89626519759571
H           98.69527873986648        7.76053734654171        0.39281355033035
H          100.71587615502989        7.17184445928548       -3.13731485567944
H          100.77902023727073        4.70998824421838       -2.79590862032946
H           97.09426496471077        4.36405937750356       -1.01402523627493
H           95.23346348962981        2.45480526801076       -0.65686789937282
C          112.40260373787217        0.00331681541444       -0.01625037296187
C          113.02496379345772       -1.22814889415321        0.26774100518771
C          112.37078306621031       -2.44871239665760        0.57628668976409
C          113.33142020670272       -3.40276931750151        0.77369778838206
C          114.60055714971429       -2.79270405009455        0.58077160584047
N          114.36464867653757       -1.47621052152671        0.28738318782462
C          115.85843760839622       -3.39934178326019        0.68252318142084
C          115.86820079949584       -4.85087209448721        0.98451037994192
C          116.46370919830272       -5.34292713603101        2.14545351012434
C          116.44425075460933       -6.70710533924751        2.38898418313754
N          115.88413570183592       -7.58282094711582        1.56070496465534
C          115.31744954414040       -7.12266195996095        0.45013666821064
C          115.28142768205690       -5.77640258263878        0.12226343793176
C          117.08550349037840       -2.75401483462065        0.52363438056862
C          118.36877073747078       -3.43173730824832        0.57081261913248
C          119.30886969624061       -2.48340868566477        0.37931408187674
N          117.26655332652770       -1.42500920222062        0.28798303200347
C          118.59808537412120       -1.23145896306997        0.20878482375528
C          119.25755471978790       -0.00219519649312        0.00545178095282
C          118.63512655921187        1.24507249908809       -0.19736693774487
C          119.28897898482114        2.49285262213473       -0.36616270582118
C          118.32833560627007        3.45000568819126       -0.54769361685225
C          117.05958996341420        2.81068180722785       -0.50495472494220
N          117.29570081730472        1.48073243490161       -0.28036215357760
C          115.80192071068996        3.40952306355539       -0.64661206857207
C          115.79311196291674        4.86785471102671       -0.91391635730019
C          115.19256453643203        5.76138021538886       -0.02768355253447
C          115.21487613083427        7.11680341707607       -0.31587634353409
N          115.78235338261311        7.61561708434638       -1.40939985923983
C          116.35368383857826        6.77059568379527       -2.26131978092915
C          116.38736039534982        5.39999145813589       -2.05766821122505
C          114.57492505194006        2.75049860361236       -0.55803239143615
C          113.29221195841339        3.39492866266048       -0.77610905028842
C          112.35207524707008        2.44321045964369       -0.60218793032328
C          113.06228099431188        1.21964555548777       -0.28583871414449
N          114.39368702103478        1.43024018706585       -0.27780288496270
H          111.30185769147566       -2.57125982766499        0.64278153906665
H          113.17622589524551       -4.43590533139550        1.03817149577129
H          115.08914928541263       -0.78711468981712        0.11554037241547
H          116.92169288415730       -4.66452428630385        2.85528944307262
H          116.89743138670254       -7.11338593361454        3.28847260098822
H          114.87153691113085       -7.86262865128277       -0.20802174644246
H          114.81916300942804       -5.44883424151747       -0.80135915929701
H          118.50868656000250       -4.49057603924771        0.71592470170415
H          120.38079858057650       -2.59462991186589        0.34568669337426
H          120.35764227534497        2.63257133569433       -0.34403359433210
H          118.48324313746112        4.50697591717747       -0.68988052607967
H          116.57144477899605        0.77670582610275       -0.18510534885310
H          114.72875575942001        5.40074692628867        0.88262557574009
H          114.75809472822181        7.83236052307302        0.36150041099373
H          116.80565421575372        7.20779023278295       -3.14684152851461
H          116.85389517933982        4.74827566509366       -2.78683780630559
H          113.15277554887031        4.43056889209061       -1.04028398054836
H          111.28046623418808        2.53256085783751       -0.68095840940952
C          128.42865958530223        0.00711548905296       -0.00831776547149
C          129.05323451521599       -1.22417927309564        0.27116103680257
C          128.40139193531243       -2.44554041900957        0.58159551317186
C          129.36356717314871       -3.39972928359356        0.77071120134838
C          130.63121788489752       -2.78873185816162        0.57119041162570
N          130.39304780356437       -1.47173193961158        0.28197116304164
C          131.89004882606218       -3.39461587113504        0.66465992665237
C          131.90284488623351       -4.84724711107701        0.96090500197946
C          132.50561177612528       -5.34393496951097        2.11610966542960
C          132.48954744789140       -6.70930212315785        2.35317328507913
N          131.92597717207173       -7.58187837075797        1.52392775243764
C          131.35202412020490       -7.11724543659677        0.41897048751248
C          131.31217740744714       -5.76949469031999        0.09778214226638
C          133.11551974115022       -2.74712572120065        0.50237284450007
C          134.40001686241865       -3.42277604443102        0.54380802193719
C          135.33789735126598       -2.47225280180910        0.35248519100305
N          133.29352236242804       -1.41722360722112        0.26930123715878
C          134.62445141462183       -1.22115166212978        0.18671273129930
C          135.28157512230942        0.00936135791442       -0.01723993162270
C          134.65730822184571        1.25550888981696       -0.22083626744542
C          135.30931057353848        2.50351089329341       -0.39505052836792
C          134.34711832356842        3.45900942034010       -0.57737491694120
C          133.07921966612923        2.81844648288163       -0.52907605549240
N          133.31739288173836        1.48947350533444       -0.30107150463211
C          131.82030526074749        3.41545088842376       -0.66795041314061
C          131.80805213955261        4.87258616107402       -0.94133080987778
C          131.20799951419130        5.76887068690956       -0.05751246750171
C          131.22536899879921        7.12288207273356       -0.35258072912479
N          131.78777160849432        7.61784126503235       -1.45046931495097
C          132.35901493779664        6.77023181570111       -2.29986890557422
C          132.39729652656803        5.40075992971466       -2.08950314722727
C          130.59461386026589        2.75522234498429       -0.57105893469500
C          129.30984647216806        3.39731310077726       -0.78392205266550
C          128.37191799676989        2.44523608425182       -0.60049506304757
C          129.08552120803256        1.22352620299360       -0.28451618589521
N          130.41662663705011        1.43565292330510       -0.28530421311972
H          127.33293476634522       -2.56853891457053        0.65451362673174
H          129.21050056858712       -4.43350792450633        1.03392279736418
H          131.11630293275363       -0.78213328381491        0.10690127642137
H          132.96667428216156       -4.66829874266799        2.82658815273970
H          132.94861297896426       -7.11923423871209        3.24800634414732
H          130.90335352894760       -7.85469138220171       -0.24013771183252
H          130.84408316387729       -5.43813714329932       -0.82154485942627
H          134.54228859187964       -4.48174219924902        0.68557559043432
H          136.40988031278025       -2.58171527809567        0.31554776760786
H          136.37789348945694        2.64438011307022       -0.37620772310251
H          134.50036968538487        4.51568950481742       -0.72350739683876
H          132.59406274706737        0.78504787421724       -0.20174248556063
H          130.74817150523128        5.41152081536799        0.85610520170181
H          130.76849848559698        7.84047357490592        0.32258225898194
H          132.80683433207349        7.20428406921666       -3.18903568470465
H          132.86324246476806        4.74674841870255       -2.81699076477786
H          129.16740209614747        4.43173082440661       -1.05123016143074
H          127.29975737408245        2.53315586620197       -0.67306271069322
C          144.45248925466836       -0.01867388048973       -0.01260216676438
C          145.07920584665587       -1.24847158438539        0.26817439205824
C          144.42976560087388       -2.47192092224770        0.57534765515066
C          145.39399275150791       -3.42380584001180        0.76573415563117
C          146.66060147236820       -2.80912223469956        0.57071341140499
N          146.41966471283192       -1.49240899262867        0.28254935193693
C          147.92082742170618       -3.41160465065888        0.66765383574898
C          147.93618784027890       -4.86505787326720        0.95976604232938
C          148.53566109214120       -5.36415533204437        2.11563391338118
C          148.52166383733615       -6.73032972167569        2.34823424897439
N          147.96308972553715       -7.60146481880540        1.51411641084026
C          147.39230491499231       -7.13453267524287        0.40847975882800
C          147.35079327133099       -5.78585596568321        0.09147369009884
C          149.14513719848705       -2.76013749202316        0.51226183991625
C          150.43151168757382       -3.43185638627483        0.55908514032483
C          151.36741367034693       -2.47809568810620        0.37425348678309
N          149.32022958837172       -1.42930502598191        0.28222078763689
C          150.65097156964532       -1.22897797348634        0.20651544464570
C          151.30539901690958        0.00355506429961        0.00598756001267
C          150.67836061665815        1.24769681814582       -0.20146966899761
C          151.32733898439196        2.49740182010991       -0.37474323685911
C          150.36309913307548        3.44956095924395       -0.56373789270517
C          149.09701240472887        2.80515742346313       -0.52033029529134
N          149.33812234165856        1.47740144255691       -0.28849219688584
C          147.83694118530414        3.39801800935694       -0.66631971565591
C          147.82114558025194        4.85425642578450       -0.94421897580302
C          147.21437441483405        5.75146650970306       -0.06595244171005
C          147.22747066803990        7.10441332398393       -0.36608473163282
N          147.79191889982368        7.59744580016300       -1.46378792146840
C          148.36983429374266        6.74893842484008       -2.30776420215396
C          148.41278378135934        5.38043953881203       -2.09206236629684
C          146.61289603079433        2.73441449300588       -0.57281333995545
C          145.32708650858373        3.37252543038772       -0.79121736669017
C          144.39121063490703        2.41833151712954       -0.60859753069832
C          145.10718337084492        1.19913425733791       -0.28816056336440
N          146.43763486868724        1.41485941114919       -0.28512856976681
H          143.36142283664216       -2.59779988093368        0.64511380508995
H          145.24299894525481       -4.45834889982229        1.02715582475552
H          147.14153197248706       -0.80063369734783        0.11036645129332
H          148.99248981279462       -4.68985413294775        2.83010019983681
H          148.97822323043707       -7.14215068993366        3.24348352100841
H          146.94764888993603       -7.87081206291903       -0.25464346770362
H          146.88540970620829       -5.45254400960716       -0.82852622640796
H          150.57642209860975       -4.49059354582408        0.69988233422060
H          152.43991212370719       -2.58415854068183        0.34275210145174
H          152.39537231302569        2.64163835920917       -0.35093425925396
H          150.51368502836402        4.50643059854235       -0.71129477970615
H          148.61651967541857        0.77085348424057       -0.19166405931706
H          146.75245288377971        5.39572425398725        0.84723678503200
H          146.76513062094381        7.82270130001037        0.30459918676616
H          148.81918046583093        7.18140906996777       -3.19692909886934
H          148.88401981514193        4.72551521043362       -2.81530920456860
H          145.18255731885108        4.40596689390672       -1.06112661315540
H          143.31907589748511        2.50331336869966       -0.68474700524709
C          160.47643042164214       -0.01505632793125        0.00562240026941
C          161.10130141901112       -1.24629789170081        0.28420429216813
C          160.45028822819239       -2.46748411875877        0.59699046604162
C          161.41296199072710       -3.42181923255544        0.78273736134808
C          162.68014943712907       -2.81108381588769        0.57890485958242
N          162.44113682890102       -1.49401527752126        0.29063513030096
C          163.93905050874409       -3.41743750426806        0.66829752973718
C          163.95090421688454       -4.87039341120947        0.96335117869305
C          164.55452099138517       -5.36907024294243        2.11722145212812
C          164.53567679583855       -6.73454691103181        2.35358802248490
N          163.96865984243843       -7.60540385903111        1.52489690170563
C          163.39413337897710       -7.13890661558726        0.42101521829992
C          163.35691112898704       -5.79090816265999        0.10061083878682
C          165.16469025535540       -2.77067047225361        0.50340899962900
C          166.44887436647412       -3.44710188255134        0.54249540232738
C          167.38708290158561       -2.49711104494137        0.34980449230773
N          165.34318299857131       -1.44089289492435        0.27021615838718
C          166.67421880843875       -1.24557470317505        0.18530908372453
C          167.33150083913398       -0.01540235514863       -0.01981845594779
C          166.70663941368622        1.23066670250280       -0.22303011640490
C          167.35805862822937        2.47865738291256       -0.39934685279479
C          166.39536930971596        3.43387009795323       -0.58064380811953
C          165.12772640918078        2.79314571104089       -0.52947549021183
N          165.36649337436137        1.46437300243019       -0.30105675914912
C          163.86859389086618        3.39020555832400       -0.66636937292227
C          163.85565430081769        4.84717428410500       -0.94071353351737
C          163.25816031639053        5.74385901311027       -0.05556926296880
C          163.27375385512653        7.09761979093071       -0.35182608047329
N          163.83198208210246        7.59191862231925       -1.45214512416737
C          164.40085740732945        6.74390520014196       -2.30273537432138
C          164.44077592147872        5.37464260322233       -2.09127927121211
C          162.64291416825307        2.73065939282656       -0.56637593532003
C          161.35810515179162        3.37332557527208       -0.77734231985730
C          160.41996362136788        2.42221185119377       -0.59028086403360
C          161.13350755893805        1.20050721707782       -0.27405136807194
N          162.46468704044824        1.41158703089066       -0.27835934782475
H          159.38204690461666       -2.59019989778515        0.67361541043799
H          161.26054148942504       -4.45556352904692        1.04647271832672
H          163.16374723030071       -0.80444519264997        0.11285758973419
H          165.01813263632198       -4.69489036654642        2.82741856014446
H          164.99509075118280       -7.14599652892810        3.24754622068222
H          162.94256289744658       -7.87496039288620       -0.23767546241328
H          162.88791695020740       -5.45797138157371       -0.81769012092420
H          166.59068216262534       -4.50616933961393        0.68404758941551
H          168.45897074321783       -2.60705725745039        0.31110040090473
H          168.42662244082757        2.61985305821597       -0.38262815073657
H          166.54809290826284        4.49046899604143       -0.72790313542321
H          164.64355858755502        0.75982432280291       -0.19974293773351
H          162.80149411862143        5.38695299100399        0.85980995436868
H          162.81876883030552        7.81552190046337        0.32428230408114
H          164.84519632117826        7.17744449209981       -3.19389499505745
H          164.90463465831363        4.72023740496098       -2.81974438983060
H          161.21575157757607        4.40740049851155       -1.04600147030741
H          159.34771892862886        2.51080308073874       -0.66062720645626
C          176.50299471367910        0.02643293751832       -0.03058155988309
C          177.13499933057849       -1.20418602367185        0.23438208748636
C          176.49125001702129       -2.43270403309293        0.53333327048598
C          177.45956551823210       -3.38309437314267        0.70926428909084
C          178.72323220191328       -2.76270776785612        0.51214871967502
N          178.47630670590874       -1.44385383982524        0.23877733559019
C          179.98544468353040       -3.36318188044206        0.59186025778422
C          180.00601047306509       -4.81901767170570        0.87154038112175
C          180.61778195515834       -5.32547353052724        2.01777115791074
C          180.60634313245308       -6.69306104695208        2.24186088245340
N          180.03900341244096       -7.55895148667798        1.40817404772973
C          179.45711285692511       -7.08508699681192        0.31130890868061
C          179.41221479565880       -5.73442802047593        0.00326106732228
C          181.20763985275568       -2.70806229244412        0.43235347582419
C          182.49482239733840       -3.37960444076071        0.45568897951511
C          183.42851458679542       -2.42222445230330        0.27830478549012
N          181.37963592552094       -1.37385794277966        0.22250633918379
C          182.71002158027247       -1.17081486010903        0.13969700003880
C          183.36092088334627        0.06724363084625       -0.03423673815027
C          182.72888130138159        1.31363974676039       -0.20954422884612
C          183.37242312553943        2.56949659912102       -0.35649481569840
C          182.40403822169174        3.52142949375591       -0.52419883431776
C          181.14060089048343        2.87099824670016       -0.49356234566221
N          181.38740238083173        1.53976606932422       -0.29013984651516
C          179.87827109083179        3.46207656852993       -0.62770530546688
C          179.85797475718627        4.92379704788210       -0.87547378964841
C          179.25141290180849        5.80073574854999        0.02315318967467
C          179.26121276475348        7.15982989368490       -0.24786898775178
N          179.82192774633543        7.67740242246482       -1.33616888331387
C          180.39915878523374        6.84827096075218       -2.19966709830280
C          180.44554568033757        5.47557571868236       -2.01332287174508
C          178.65615169867175        2.79329492357519       -0.54770202474317
C          177.36872617418942        3.43190665811771       -0.75554828443244
C          176.43514070967399        2.47230915005535       -0.59015040090367
C          177.15404494605929        1.24972038165624       -0.28984583586604
N          178.48399908960795        1.46852631592439       -0.28319006924095
H          175.42375386616985       -2.56271122249502        0.60828213414498
H          177.31314593059230       -4.42044052615599        0.96200715540009
H          179.19462807412808       -0.74768645927687        0.06959925310285
H          181.08186799718007       -4.65559337673250        2.73172841923903
H          181.07205109471982       -7.11043843289032        3.12979713646754
H          179.00562269926797       -7.81721624719223       -0.35180070361158
H          178.93737414742725       -5.39546773979559       -0.90981659059490
H          182.64139248507604       -4.44055627974308        0.57681066480257
H          184.50073467755269       -2.52689122382491        0.23493392935574
H          184.43990233137214        2.71755828063627       -0.33100953638646
H          182.55010505011538        4.58179415531283       -0.64959896959598
H          180.66916558337940        0.82802173510091       -0.20745482811938
H          178.79230067023335        5.42447610974318        0.92951327945655
H          178.79940945568757        7.86269494764963        0.43933157588533
H          180.84521921700181        7.30058816116441       -3.08058640219062
H          180.91651432312824        4.83725003982286       -2.75143584588940
H          177.22192233873940        4.46959691642945       -1.00740755151707
H          175.36278365015036        2.55571133470547       -0.66524062061121
