254
 energy: -467.338283716955 gnorm: 0.000900535961 xtb: 6.5.1 (b24c23e)
Cu          38.97705040024572       -0.01738410024923       -0.03894803246458
C           35.57201218041103       -0.07169217049329       -0.11064525517303
C           36.21422972909539       -1.29861079154106       -0.03677801010991
C           35.54582705257008       -2.56489818275252        0.05331735632943
C           36.50985221139025       -3.51538862282300        0.13440281596698
C           37.77709555262715       -2.83852986322557        0.08258200521552
N           37.56607661091888       -1.49304812069224       -0.01389135118255
C           39.02502267891247       -3.46341829082738        0.14810469347170
C           39.04748115861303       -4.94491858962276        0.24180033494628
C           38.52399817456486       -5.73030579945252       -0.78529163456197
C           38.54774674045883       -7.11408135177310       -0.70134187079623
C           39.09309386963492       -7.72897762343220        0.42318156042546
O           39.13394435101166       -9.08075674351526        0.54806823770203
C           39.61571680761634       -6.95584469694258        1.45829035131941
C           39.59421311459412       -5.57577218289784        1.36192187239118
C           40.25362053215345       -2.80058710782346        0.13283767174180
C           41.53502445361806       -3.44755676233475        0.14153486379371
C           42.47556733200729       -2.47004992607483        0.09993803468552
N           40.43461996515958       -1.44352790219345        0.07470097336548
C           41.77693021502873       -1.22078354607741        0.05918866139246
C           42.40580145414481        0.03563996982918        0.00053227876452
C           41.73972507811627        1.27250344943742       -0.05994597334980
C           42.40083278629606        2.53990352665061       -0.14367497469993
C           41.43154207924766        3.48847622150788       -0.19513755154059
C           40.16995328718462        2.80597515500124       -0.13695178469232
N           40.39132606452652        1.45576080195750       -0.06296121815732
C           38.92211925245159        3.43056387652270       -0.18192709878307
C           38.90028217659354        4.91432446000821       -0.22723073084962
C           39.42746743701202        5.66232286423064        0.82826833272032
C           39.40669840844593        7.04537494990115        0.79684286706863
C           38.86075631525297        7.70332348260144       -0.30371651316622
O           38.85987844508338        9.06145525264632       -0.30401458678228
C           38.33485614489242        6.97087814887971       -1.36529428429775
C           38.35335389521030        5.58517388151453       -1.32109603787594
C           37.69338909084550        2.76544391322755       -0.18505929119779
C           36.40641761981836        3.40612416628223       -0.19477263049909
C           35.47126152423559        2.42393987242108       -0.18382021158625
C           36.17721130634595        1.17526344526379       -0.15505981858305
N           37.52267237211969        1.41121063431123       -0.15370541689388
H           34.48697124852634       -0.08833411519798       -0.11832158006440
H           34.47502683783256       -2.69502386204580        0.06187943496478
H           36.38076231449021       -4.58120179396724        0.23363051515617
H           38.11055795016397       -5.25314315124117       -1.66694434280152
H           38.14591722582883       -7.71988813340701       -1.50648684358536
H           38.74686344812870       -9.51767237661801       -0.22237188164531
H           40.03281426223911       -7.44738741107053        2.32855150193132
H           39.99071158186194       -4.97398434582955        2.17209043509383
H           41.69140467182772       -4.51393971279422        0.16151057276355
H           43.54858573682148       -2.57604418863579        0.09156173517035
H           43.47029182893023        2.67587840544474       -0.16613936745924
H           41.55573946707266        4.55586164486303       -0.28060821356735
H           39.84208678628912        5.15021684907371        1.68937363620970
H           39.80839469386672        7.62763820331306        1.61687412477785
H           38.46068456112695        9.41335387385297       -1.11088401801232
H           37.91493788281814        7.48726455656823       -2.22186282497813
H           37.95490115160689        5.01630461777733       -2.15386446634194
H           36.24544016250417        4.47221290030301       -0.19632279623528
H           34.39704851725997        2.52237114322564       -0.18541094645210
Cu          94.79584778735904        0.00096680257849       -0.02080844352036
C           98.19974712650091        0.04797040903999       -0.13953532726119
C           97.55498404509953        1.27211063047398       -0.23323358369379
C           98.22097192944619        2.53885106009416       -0.33312862065803
C           97.25542898308561        3.49029019171400       -0.37578163296162
C           95.98950845341071        2.81186403282862       -0.31370942960997
N           96.20290774153588        1.46647222504578       -0.22066827970772
C           94.74106806770622        3.43913569588585       -0.31945975853581
C           94.71660922614008        4.91835855884264       -0.44285107539725
C           95.22542289733393        5.54361207476659       -1.58135260427323
C           95.19982519087240        6.92451635815092       -1.70261654487876
C           94.66714022445966        7.69867515151647       -0.67455667854790
O           94.62470780972873        9.05396508401457       -0.75051334748080
C           94.15949348527258        7.08681334210273        0.47011691981886
C           94.18293429365060        5.70765778615427        0.57872339519142
C           93.51431118555591        2.78011685095484       -0.22047928566691
C           92.23132591514000        3.42091814142482       -0.28231494915737
C           91.29312962511209        2.44633885819880       -0.17352808930419
N           93.33647357553444        1.42797715457332       -0.08571903708045
C           91.99464139906505        1.20405218006260       -0.05157661898743
C           91.36802378450911       -0.04951950130411        0.06432563911320
C           92.03644855727758       -1.28265052719268        0.16196771172239
C           91.37775931497609       -2.55038043605161        0.25755726213250
C           92.34887901921111       -3.49580898126511        0.32875971101198
C           93.60919670920202       -2.81018922602973        0.28267444557255
N           93.38533851991409       -1.46279409242543        0.17252840778776
C           94.85802040765049       -3.43353285434207        0.31443346181502
C           94.88365970797325       -4.90929380826752        0.47384982924453
C           94.36635159681640       -5.50615131317876        1.62608095838957
C           94.39228764076377       -6.88027077291470        1.78541851308636
C           94.93348194138443       -7.68209478827571        0.78223619394455
O           94.94014798104951       -9.02721148964727        0.96935715724489
C           95.44908742396349       -7.10149585707685       -0.37407843670099
C           95.42550383640925       -5.72302192086310       -0.52115288116959
C           96.08490997140572       -2.77351082900453        0.20885408048654
C           97.37330515365940       -3.40768572955369        0.27649816201140
C           98.30602852672138       -2.43262939105053        0.14006597471758
C           97.59724079174713       -1.19316228894750        0.00030690913625
N           96.25240049662700       -1.42788713476418        0.04906497624738
H           99.28456196622588        0.06444710015409       -0.16254414971900
H           99.29143586247471        2.66981065985747       -0.35717976423418
H           97.38288219978459        4.55948515987235       -0.43077500487682
H           95.62870260921359        4.94146059189125       -2.38799793196484
H           95.59026620265178        7.40472354540567       -2.59350130365587
H           95.00045136462074        9.37225772975556       -1.58228104472285
H           93.75224838310037        7.70147677971884        1.26335189896999
H           93.79840529259727        5.23229201478585        1.47420422734039
H           92.07197327595426        4.47954997637514       -0.40844961166270
H           90.21981040675348        2.54925355221864       -0.18061178923816
H           90.30848070266617       -2.68947102473638        0.26302189045083
H           92.22662620818694       -4.56497894303379        0.39164257563816
H           93.95568151412412       -4.88146791346638        2.41142880875610
H           93.99847618071013       -7.34509648323032        2.68078350664697
H           95.33540058519083       -9.48583239730734        0.21592256517147
H           95.86519656977478       -7.72979296384209       -1.15431592153085
H           95.81602621579873       -5.27323156032778       -1.42727921684372
H           97.53698514926805       -4.46324274501856        0.42304522682198
H           99.38042052230570       -2.52905025253025        0.14131192830170
C           43.81127220941181        0.05443719714803       -0.00712254082692
C           45.03563656064488        0.05863089352763       -0.01733468832125
C           46.37847384076480        0.06557110417256       -0.02873892664132
C           47.60909784506807        0.06416816513221       -0.03482876523941
C           48.94708475562255        0.06184703480285       -0.04704019050945
C           50.17778562461739        0.05824139475547       -0.05644424760346
C           51.52037078612727        0.05293260030889       -0.06507889835596
C           52.74506378031301        0.04800560661984       -0.07201719815325
C           62.42102105102101       -0.02912355108321       -0.02623011146109
C           63.64586610623618       -0.03128797584568       -0.02207304605170
C           64.98766916142894       -0.03300753729603       -0.01915470824245
C           66.21861453810246       -0.03103048612611       -0.01820285172591
C           67.55559892065662       -0.02802127348531       -0.02274513741623
C           68.78637383734247       -0.02403801182824       -0.02768207841350
C           70.12816967172614       -0.02006355666723       -0.03184562721412
C           71.35308921162260       -0.01901224432360       -0.03742464602224
C           81.02898907321456       -0.07268553995800        0.00573472886649
C           82.25362854970530       -0.08055635136149        0.02048479921824
C           83.59612763919397       -0.08818696414571        0.03683799833118
C           84.82680635625118       -0.09338584335333        0.04880510204249
C           86.16471127163530       -0.09269871716042        0.06178958094724
C           87.39528745060768       -0.09080373015706        0.06867144631091
C           88.73813967210646       -0.08173561775813        0.07561565010952
C           89.96258689517646       -0.07092571310558        0.07015459647985
Cu          57.58358791234710        0.01402557178471       -0.05773226298360
C           54.14977782151896        0.04080064980401       -0.07282560304302
C           54.80333483291059        1.08831330690256        0.60157526056514
C           54.13049361402641        2.12454885825757        1.32480354942578
C           55.09054882685508        2.94259530324338        1.82706978502438
C           56.35640817966916        2.41455954879609        1.40539394858272
N           56.14847875795266        1.28064451443392        0.66551889250159
C           57.59919105972189        2.96825236068697        1.72143563834690
C           57.60798135120916        4.23939985392375        2.48717624829850
C           58.20787730420886        4.30523307323977        3.74720505197127
C           58.21933141256002        5.48730396773191        4.46601490157777
C           57.63337625991237        6.63048882055899        3.92563115128347
O           57.66684617764452        7.77506609405332        4.65551890634237
C           57.03469527531377        6.58102937043705        2.66893981531664
C           57.02079942175719        5.38982157661448        1.95989277997113
C           58.83611518383920        2.42002182548868        1.37483703457176
C           60.10813094586128        3.02955108854075        1.63906417072390
C           61.05944012641973        2.19378604170061        1.14972541459483
N           59.03174563357426        1.23339871464962        0.71916073701379
C           60.37494377189009        1.07505070929031        0.57597262667430
C           61.01719420175296       -0.01845507140192       -0.03320872031991
C           60.36299130361324       -1.09968461818350       -0.65135547590698
C           61.03408921694739       -2.23085735523339       -1.21629298073742
C           60.07428269961704       -3.04578506114525       -1.72399897337199
C           58.81062759188350       -2.41122618163435       -1.47921197814128
N           59.01928727114650       -1.23102028685168       -0.81610898209719
C           57.56886079400105       -2.93280395141980       -1.84927005760007
C           57.56563089622310       -4.19694596970536       -2.62637294053975
C           56.94412353619398       -5.33989250391491       -2.12244653550760
C           56.94578177614355       -6.52370690694888       -2.84387317585418
C           57.56707256643703       -6.57326074236587       -4.08962622678676
O           57.58926661816807       -7.71063441927513       -4.83115979874164
C           58.18819654861563       -5.43768764724123       -4.60644919481230
C           58.18831305786065       -4.26311565011548       -3.87539919122972
C           56.33214482980924       -2.35836354087238       -1.54639929729398
C           55.06212878453507       -2.86184104487833       -1.98527645002277
C           54.11040938515622       -2.03326171557064       -1.48429573978579
C           54.79279441148595       -1.01329281241210       -0.74719287913418
N           56.13524871432985       -1.22641035854860       -0.80040874755732
H           53.06092023322813        2.20313047554389        1.43683326616496
H           54.95681878081713        3.81752182468895        2.44244294538577
H           58.65375156605160        3.41312192455736        4.17257240619470
H           58.67759875984517        5.53931861346035        5.44585156014208
H           57.23191005767028        8.50233404844387        4.19071262434722
H           56.58389360787572        7.47438739004480        2.25031406172694
H           56.56550509870532        5.35582800115548        0.97633802786066
H           60.25179344061659        3.98238682571661        2.12222284997730
H           62.13019020662110        2.32006593763875        1.16323654965091
H           62.10214851958305       -2.37891522742848       -1.21180890148566
H           60.20654094318150       -4.00031524666653       -2.20705084602855
H           56.47150218971471       -5.30645592349797       -1.14708051501200
H           56.46786901063896       -7.41133669357386       -2.44339231720384
H           57.12858187371803       -8.43262926430439       -4.38309107790442
H           58.66411626097666       -5.48955920111403       -5.57788854019663
H           58.66141572583516       -3.37660585388810       -4.28279694682556
H           54.92011515996514       -3.72876121046866       -2.61004760114101
H           53.04083979011781       -2.09356354088274       -1.60722030470444
Cu          76.19066402961964       -0.03309897755472       -0.03750395183454
C           72.75695589947439       -0.02055063205143       -0.04133588513274
C           73.40848384579299        1.02666101103338        0.63535399992834
C           72.73388349671953        2.05799025514145        1.36355261504334
C           73.69204228488877        2.88319737214092        1.85769203478015
C           74.95824118306035        2.36377795847463        1.42636097867290
N           74.75265030093280        1.22736428654278        0.68975606871231
C           76.19936914582836        2.92786290504599        1.72998465009223
C           76.20166734462950        4.20528742278364        2.48511686183100
C           76.80711927209560        4.28857843538580        3.74135673855356
C           76.80789646305053        5.47669934818903        4.45031818798957
C           76.20537327790149        6.60836945232754        3.90371607828016
O           76.22871640100752        7.75923483255961        4.62399435651638
C           75.60035570808311        6.54130539426476        2.65086231165403
C           75.59732774011314        5.34421449876218        1.95182282435168
C           77.43741601393040        2.38412489682030        1.38010386351020
C           78.70771478131837        3.00033538802865        1.63626625986192
C           79.66108247946259        2.16328929003350        1.15300426867403
N           77.63585765839613        1.19306476049654        0.73308457796996
C           78.97963047125567        1.03742132935557        0.58955812385014
C           79.62440856810943       -0.06055966930369       -0.00882024717477
C           78.97209034912287       -1.14457370979738       -0.62392587833230
C           79.64458113031101       -2.27642896803970       -1.18599691331974
C           78.68640432122567       -3.09036474026932       -1.69844592516086
C           77.42221669599498       -2.45546356691802       -1.45835399457025
N           77.62867133542609       -1.27553266688011       -0.79396923317767
C           76.18187318602783       -2.97604889761789       -1.83476015121962
C           76.17826532469351       -4.23569876617429       -2.61901098001880
C           75.54994124006815       -5.37933531316653       -2.12501468340647
C           75.54294786579050       -6.55633713588014       -2.85740873333707
C           76.16240486386963       -6.59821613090963       -4.10432768940946
O           76.17461844381117       -7.72808035708309       -4.85735646743370
C           76.79159014938502       -5.46228874672066       -4.61056959515791
C           76.80039262485269       -4.29461510623726       -3.86859200321972
C           74.94418737097337       -2.40362331303719       -1.53272589555518
C           73.67525590982339       -2.90655126873807       -1.97551455141391
C           72.72185789145067       -2.08319322187461       -1.46925837801165
C           73.40226654289818       -1.06699961431352       -0.72539231502590
N           74.74506922506515       -1.27610950890921       -0.78063519157732
H           71.66465030484702        2.12888465246379        1.48364665534026
H           73.55691442348487        3.75722751873156        2.47401783143018
H           77.26508734011786        3.40518843046389        4.17213887556822
H           77.26981572927782        5.54215655108328        5.42762608851052
H           75.78287262868150        8.47769385238456        4.15550548896845
H           75.13590265395291        7.42547164832281        2.22762183616660
H           75.13657923264709        5.29631565141880        0.97143928425160
H           78.84879693588186        3.95771248366707        2.11118790864971
H           80.73141722310824        2.29338295183471        1.16389929364398
H           80.71253726911965       -2.42508520421431       -1.17740486957496
H           78.81957824520694       -4.04462301148234       -2.18183827111845
H           75.07759346184621       -5.35164852536287       -1.14934961445493
H           75.05869343643437       -7.44419684356592       -2.46513827904717
H           75.70920336474735       -8.45119427896923       -4.41579222382799
H           77.26567518919983       -5.50810566222345       -5.58317764535617
H           77.27871999146468       -3.40738521297004       -4.26823795796815
H           73.53465375734780       -3.76948238108823       -2.60604576369361
H           71.65241011730139       -2.14492159500634       -1.59239223922583
