258
 energy: -516.124429747766 gnorm: 0.000652982449 xtb: 6.5.1 (b24c23e)
Ni          49.93883655639371        0.00382629116006       -0.04893676417083
C           46.54282801274081        0.04645618986392       -0.14322919092967
C           47.20314832363270        1.25628195736930       -0.10968381950746
C           46.52823035685293        2.51786276216333       -0.08907461114130
C           47.48809395066971        3.46985127065847       -0.03479939985696
C           48.74970845633656        2.78847467904979       -0.03316745070213
N           48.56426769807914        1.42872868423335       -0.07150522822182
C           49.97502932450627        3.43794910353551        0.03360626001988
C           49.99154306356404        4.92226097999577        0.07286423388496
C           49.52054755472801        5.65608150478254       -1.01542614218839
C           49.53924889414490        7.04568884288216       -0.97879284507326
O           49.09050822583688        7.76919076924027       -2.03324883857729
C           50.02336360367016        7.70491097541528        0.15223191815268
O           50.02620969483058        9.07507586448618        0.16114260648175
C           50.49017675406551        6.97108178694079        1.23976766684081
O           50.94625476336220        7.68787478384957        2.31459514923772
C           50.47979291454109        5.58208035474430        1.20341890697894
C           51.18529147214135        2.75906092580087        0.06458286931233
C           52.45780963506861        3.41407355374458        0.09228699123933
C           53.39945848524385        2.44071034277025        0.09390056261402
N           51.34774480277721        1.39163075820538        0.03677870163446
C           52.70113046170498        1.19559428737284        0.05826425176039
C           53.35491433155224       -0.03886709547494        0.02864654375112
C           52.67271878597467       -1.25676337094427       -0.02189448060984
C           53.34160489743615       -2.51792710275354       -0.06547411316598
C           52.37728204795234       -3.46752353001052       -0.10809613027359
C           51.12043453622920       -2.78248526272665       -0.08172056046241
N           51.31482149538171       -1.41951432506357       -0.03978268667335
C           49.89393696039068       -3.43045124775417       -0.12190278999221
C           49.87447696510475       -4.91478669269476       -0.15992707397055
C           50.36369303299646       -5.65059469617417        0.91886802932536
C           50.34080518244790       -7.04014619381387        0.88146527429691
O           50.80661043465646       -7.76582052447632        1.92703716436209
C           49.83483146902993       -7.69724647756695       -0.24123916294215
O           49.82873604686279       -9.06760482659688       -0.25172287588598
C           49.35028294554600       -6.96141934933547       -1.31955617615743
O           48.87341137640232       -7.67605838172683       -2.38710333801637
C           49.36403654632147       -5.57256207037934       -1.28192878579602
C           48.68351147767707       -2.74995722696526       -0.13432947007027
C           47.40600252792500       -3.40069295082557       -0.14080230530640
C           46.46857682965403       -2.42469903641525       -0.15191695372495
C           47.17349175551762       -1.17976408231133       -0.14143476696062
N           48.53025402160065       -1.38588954835859       -0.12229238269048
H           45.45932420502043        0.05996342015962       -0.16581009230015
H           45.45665342854605        2.63761037622084       -0.10637397646425
H           47.36630748273372        4.53980804914044        0.00906984101181
H           49.15459050283873        5.15465664183962       -1.90203795657829
H           49.18522418233582        8.71200358706039       -1.81899121245895
H           50.39055784661829        9.36777515712630        1.01168825183144
H           51.24731616420778        7.09861231178326        3.01862377594748
H           50.83366681938155        5.01667990502891        2.05747671230197
H           52.60262887946192        4.48200065630454        0.09685466622734
H           54.47270433084869        2.54102370441773        0.10974792966424
H           54.41230108463908       -2.64335292803234       -0.06745919895969
H           52.49591699121417       -4.53728255242708       -0.16072296931577
H           50.74762698969718       -5.15076758656545        1.79874740219262
H           50.70471525050361       -8.70812855451772        1.71405078801907
H           49.44594922063894       -9.35801152111645       -1.09484553123222
H           48.56375785572955       -7.08481780607131       -3.08572558601011
H           48.99587304586505       -5.00558975570082       -2.12890261903210
H           47.25863980552977       -4.46839445796733       -0.12801400504018
H           45.39426357473604       -2.51854479302832       -0.15906862895936
Ni          90.23940983269749       -0.06363013070250       -0.00512839926645
C           93.63514792241183       -0.09744604372488       -0.11267914919208
C           92.97381449844191       -1.30285394112828       -0.21513830041337
C           93.64727071216888       -2.55885376423484       -0.34308763922769
C           92.68618750117511       -3.50919293711839       -0.40535165400311
C           91.42543280487627       -2.83125507114811       -0.32345438479486
N           91.61243322078525       -1.47700330167646       -0.19868717247413
C           90.19938798100306       -3.48280628606471       -0.33438794466242
C           90.18157584560572       -4.96075012383566       -0.47731473303686
C           90.64745110590593       -5.55560225366314       -1.64938391921031
C           90.62704515517223       -6.93914345606299       -1.78384528203111
O           91.07065718691595       -7.52791806569820       -2.92105487986362
C           90.14669834340167       -7.73201996946023       -0.74039678249396
O           90.14206335428335       -9.09305223196946       -0.89978400042309
C           89.68556548594167       -7.13708887625172        0.43109929033281
O           89.23338641559585       -7.98016547934430        1.41208805265591
C           89.69747123674182       -5.75418373468989        0.56574108694452
C           88.99021448992170       -2.81212718463649       -0.21450222253467
C           87.71696367781495       -3.46506919968109       -0.25676741491391
C           86.77691561268199       -2.49934425558390       -0.12391126524068
N           88.82956891757654       -1.45166256832792       -0.07135104385042
C           87.47679109688377       -1.25960085433208       -0.01156476225073
C           86.82461446439538       -0.03083883576557        0.11825971247746
C           87.50759319537103        1.18478673722291        0.20261605441632
C           86.83957778347161        2.44239601900568        0.31287561983809
C           87.80411311042259        3.39153493745706        0.35966955272368
C           89.06041818812089        2.70871163819395        0.28794396494890
N           88.86513542629316        1.34932925495872        0.18138866246986
C           90.28679561128797        3.35780061946591        0.29890538501362
C           90.30769496259288        4.83779545410539        0.41936268968015
C           89.83984385498763        5.45406535566572        1.57941458660584
C           89.86379782711703        6.83975392226227        1.68973329383865
O           89.41876030242678        7.44937881873132        2.81524160412439
C           90.34926883401474        7.61305190576011        0.63394531918075
O           90.35678682379026        8.97648809669894        0.76951374056169
C           90.81257037007738        6.99653876596702       -0.52551780715254
O           91.27016836693754        7.82101571598588       -1.51967929849119
C           90.79809131667632        5.61150473083554       -0.63556295862915
C           91.49631434230331        2.68287137618961        0.19953268554858
C           92.77408570333051        3.33085527865963        0.25281271164986
C           93.71091403143824        2.36106170087123        0.13735915876303
C           93.00533248758448        1.12185665209063        0.02144998310495
N           91.64874671630473        1.32510903256968        0.06752591033215
H           94.71863354214955       -0.10909280705556       -0.13741098544539
H           94.71873952793784       -2.67708616064822       -0.37319860129627
H           92.80653509819969       -4.57686304863832       -0.49021240108512
H           91.01062165678233       -4.94921004483090       -2.46902677252040
H           90.97369770572465       -8.48970801638980       -2.82474962508820
H           89.77961548429703       -9.48725547077194       -0.09045483149329
H           88.93499848083833       -7.48099297878677        2.18363252574939
H           89.34791472653517       -5.29788638580257        1.48440049825513
H           87.57053948078612       -4.52517422759872       -0.38398616571037
H           85.70373493623146       -2.60046771062471       -0.11007512301779
H           85.76914671633887        2.56650765327936        0.34293434683140
H           87.68592485931354        4.46037878613702        0.42896971017465
H           89.47180415139046        4.86311088312705        2.40812581265741
H           89.51469605325963        8.40933555455979        2.70092748365467
H           90.72017135587198        9.35613218319989       -0.04629304980841
H           91.56211356371291        7.30798966059255       -2.28457538901168
H           91.14998144757507        5.13801213362447       -1.54460103272309
H           92.92179720078340        4.39163106951426        0.37451635873300
H           94.78524383765726        2.45501221494233        0.13492045703810
C           55.98222528524533       -0.06224499807791        0.04444610694578
C           54.76072724040794       -0.05408048682820        0.04105066087916
C           57.33254373166152       -0.06548817476317        0.04131449606449
C           58.55412724922786       -0.06488273453275        0.03093414351826
C           69.41601963318307       -0.01466777743815        0.05257804677576
C           68.19433583010100       -0.02421656028163        0.04215358238256
C           70.76617836209857       -0.01122055391604        0.05718943478973
C           71.98796093960196       -0.00550718539264        0.05466797814300
C           82.84735871863653        0.00013855824560        0.15889627972144
C           81.62583203906757        0.00289756046788        0.14518556639751
C           84.19762933859052       -0.01004514624942        0.16088160454569
C           85.41905846111241       -0.01717351347113        0.14752592768880
Ni          63.37444338370805       -0.04178006231766       -0.01965414083052
C           59.95895926178846       -0.05893703507403        0.01399386508686
C           60.62827349515749        1.14478378906837        0.25429821174867
C           59.95542359282636        2.36788954196944        0.55277419208808
C           60.90549706288083        3.33373072053253        0.59435905874270
C           62.15542406514234        2.69628997775028        0.31449912814607
N           61.97742078059731        1.34164080052738        0.14679205282630
C           63.35931977794107        3.37643045968852        0.18140527349136
C           63.34845150064486        4.85706616182846        0.25483117436698
C           64.06491438553117        5.51917223898158        1.25233022190492
C           64.05894096627554        6.90890845986243        1.33556978979687
O           64.74325222803297        7.56463808269479        2.30869613167821
C           63.33550112765355        7.65670682563630        0.40075245462337
O           63.31586951325393        9.01376971428823        0.45089846939899
C           62.62403022286039        6.98597239144958       -0.59767225923493
O           61.94003697653837        7.77766388505587       -1.48378203302950
C           62.61876042901120        5.60030872028247       -0.67477244338374
C           64.57140560712521        2.72628010908331       -0.01037617346559
C           65.82103055172820        3.40084893735550       -0.18570239123657
C           66.78118297229018        2.44468411320403       -0.21534186327730
N           64.76067726928909        1.36244380029582        0.01321913892792
C           66.11424497894571        1.19038229096677       -0.07526222629798
C           66.78947361816330       -0.03007767915319        0.02329018724652
C           66.12008810598002       -1.25538321087657        0.08639182708854
C           66.79281257363016       -2.50927303496655        0.20526155716574
C           65.84285142728014       -3.47058455941867        0.10814495242612
C           64.59259756966492       -2.79909137176131       -0.07599149952278
N           64.77060915195864       -1.43430989441956       -0.04770344293772
C           63.38871084063020       -3.45249307647232       -0.30355244993019
C           63.39706722535156       -4.93056372552509       -0.43435610513106
C           64.11700414237953       -5.53377464946368       -1.46599405848406
C           64.11349448397584       -6.91774085311322       -1.59640361551328
O           64.79356405237966       -7.51610891100526       -2.60254051419104
C           63.39611416479735       -7.69867990805512       -0.68815448376341
O           63.42250821164155       -9.07668630723044       -0.84972842973284
C           62.70934750048515       -7.09894475395803        0.36588749104794
O           62.03798218130853       -7.86118166919698        1.27600655249595
C           62.69356007946664       -5.71350722727642        0.48131730027134
C           62.17686816694461       -2.78227002057392       -0.40407799545706
C           60.92728856641052       -3.42637430260718       -0.67170058987453
C           59.96735595217832       -2.47526936731001       -0.57073209638497
C           60.63417323703192       -1.25230439371263       -0.25719181377869
N           61.98790695611119       -1.43517299474595       -0.19192893163183
H           58.89228433096875        2.46096994578471        0.70553030770590
H           60.78075274903803        4.38398972596080        0.80169740295347
H           64.61905465366358        4.94857994110279        1.98909106631607
H           65.19928223461871        6.94479961590430        2.89297089789770
H           62.76373265018244        9.33651648353367       -0.27950671842309
H           61.48108313594578        7.24040767136289       -2.14247253871186
H           62.06839078033477        5.10366910504282       -1.46516789303960
H           65.93948680689641        4.46821848799017       -0.27627286856483
H           67.84718766870412        2.56305393599790       -0.32425216387641
H           67.85613192301503       -2.62324457263029        0.34135417177043
H           65.96718142709975       -4.53983003178034        0.15956275512809
H           64.66033675434069       -4.93485519946465       -2.18532864791605
H           64.67274457239535       -8.47725318416684       -2.52334300907482
H           62.54313285400929       -9.45356371713076       -0.71476205925916
H           62.34966457077612       -8.77668121297782        1.24081438192129
H           62.15611571649102       -5.25719545425304        1.30243455626705
H           60.80929354639639       -4.47168489683485       -0.90593508568847
H           58.90133021417000       -2.57699757842125       -0.69510166950576
Ni          76.80758576413967        0.00621279012969        0.02783721897787
C           73.39284788326951       -0.00017673373618        0.04189310458194
C           74.06472510060293        1.20309148922826        0.27758326807951
C           73.39476733549354        2.43083755452514        0.56330844238796
C           74.34766915452199        3.39414026281221        0.59924824387556
C           75.59682297579089        2.75046097039060        0.33014777954069
N           75.41498422883518        1.39486830955218        0.17384372414707
C           76.80375792190281        3.42534785938879        0.19736272766875
C           76.79762044888196        4.90661669491128        0.25438782836225
C           77.51361643513302        5.57784700962682        1.24621524520428
C           77.51200496821774        6.96844297618984        1.31342218451964
O           78.19592655415288        7.63329738491450        2.28051975893249
C           76.79333197567112        7.70784197015355        0.36821870939522
O           76.77771182245212        9.06529376848371        0.40318955141539
C           76.08255742229957        7.02801263792857       -0.62455030596340
O           75.40375527174629        7.81160574518451       -1.52165143712082
C           76.07303680088515        5.64158147973963       -0.68577144984197
C           78.01517747216782        2.76880883950576        0.02239356917011
C           79.26931608056978        3.43621530141723       -0.14845690076656
C           80.22595598400278        2.47609125357327       -0.15529429068556
N           78.19871808100307        1.40475826594446        0.06436195630075
C           79.55252611618815        1.22623019397906       -0.00700688418767
C           80.22126537609780        0.00438047602157        0.11433059160611
C           79.54606076180048       -1.21763638857032        0.17961998753798
C           80.21167562586240       -2.47386050925403        0.31251049994134
C           79.26002661409883       -3.43174886689449        0.19803879820779
C           78.01592776759472       -2.75555118115135       -0.00840655411306
N           78.19833616952627       -1.39172405128649        0.02331652801643
C           76.81351485578828       -3.40404799642363       -0.25798628374485
C           76.82084822877837       -4.88105342056113       -0.39973796584940
C           77.55523631505345       -5.47616849769305       -1.42597587548629
C           77.55106155607247       -6.85886421352287       -1.56924486181583
O           78.24519206397140       -7.44936846274199       -2.57007317477934
C           76.81839149361114       -7.64648286781511       -0.67910132699394
O           76.84503063144294       -9.02387081799161       -0.85042512875518
C           76.11719182428986       -7.05515322459066        0.37009812887813
O           75.43180130689935       -7.82509764693236        1.26252280842749
C           76.10262867053238       -5.67073983524619        0.49844691591710
C           75.60534033072669       -2.72949136525934       -0.37004762527101
C           74.35578735549564       -3.36858669333487       -0.64959593886541
C           73.39770973160324       -2.41568065649421       -0.54827817415012
C           74.06592031705529       -1.19585580057601       -0.22543881825991
N           75.41858300362961       -1.38258296111382       -0.15317652793920
H           72.33137324878635        2.52850658973915        0.71133633216568
H           74.22549070894499        4.44660741711758        0.79667666386892
H           78.06363378300817        5.01409145728899        1.99127332992981
H           78.64810020189358        7.01916229851600        2.87374811166970
H           76.22601820574017        9.38164191610992       -0.33034955585707
H           74.94217342410823        7.26819966457825       -2.17342435517620
H           75.52360817505253        5.13765561969597       -1.47219854875345
H           79.39324118595106        4.50180724085439       -0.25148011352424
H           81.29356662813584        2.58882162929951       -0.25386345495568
H           81.27200855716032       -2.59168319083999        0.46750599163702
H           79.37933035366822       -4.50147942223665        0.25161626263153
H           78.11052818238846       -4.87155879437646       -2.13128202711262
H           78.12402940311355       -8.41123245689287       -2.49957416318711
H           75.95702445593162       -9.39622167992755       -0.77138270299825
H           75.73658086466816       -8.74260066555234        1.21341542992252
H           75.55413829984587       -5.22108635074296        1.31592280058122
H           74.23644091435202       -4.41221071152069       -0.89053033174791
H           72.33226655993408       -2.51425393353536       -0.67982954749593
