183
 energy: -332.993927400297 gnorm: 0.000713372922 xtb: 6.5.1 (b24c23e)
Ni          34.62734462766094        0.01510859458580       -0.03876274577835
C           31.24094973689347        0.05990876224673       -0.20504321287177
C           31.90488964420447        1.26869966586258       -0.17514427704427
C           31.24162604430437        2.53691174440716       -0.20063433799152
C           32.19559741201419        3.47794950124194       -0.01125377542628
C           33.44381735956868        2.78409335821888        0.11907038390329
N           33.25747822389136        1.43053747459789       -0.00737508641182
C           34.64389677149317        3.39945191193760        0.45073533666774
C           34.65574954032151        4.86648404266528        0.66502686849627
C           34.92667210569606        5.39532803478111        1.92989784882608
C           34.94199560032081        6.76334760783813        2.12371158525063
C           34.69148261294283        7.63220442827094        1.05652852715169
C           34.71982957602255        9.08827246511504        1.28866831812366
O           34.95137758335508        9.59015942454426        2.35855890600762
C           34.42103002722234        7.10372890939330       -0.20781325879859
C           34.40111461641664        5.73355930091264       -0.40036739944092
C           35.83777248810152        2.70151619754861        0.57816526276951
C           37.09060046659806        3.31762261584173        0.89408535524519
C           38.03984538034950        2.35985312441730        0.76694911872133
N           36.01856413656306        1.36827019894575        0.28661292940704
C           37.36938959610362        1.16460172974822        0.36604411208264
C           38.03759688466869       -0.01228711186858        0.01583933153670
C           37.35875362004041       -1.18676906205641       -0.31973116833737
C           38.01756350320171       -2.39953952974551       -0.68618666457265
C           37.05870511215802       -3.35143121320986       -0.78421616591689
C           35.81313873574773       -2.71432046434750       -0.48223278303267
N           36.00463211415241       -1.37305068152335       -0.24390696381947
C           34.59869827723951       -3.38572275062345       -0.41083382028663
C           34.59788773998910       -4.85964306048852       -0.55040745235851
C           33.90262872085482       -5.47341266460949       -1.59582799482362
C           33.90541985044570       -6.85099686676400       -1.72521589923355
C           34.59871126760418       -7.64260946198478       -0.80663945263635
C           34.61231717100227       -9.11311122250082       -0.91796111694176
O           35.18711009453693       -9.83637338565714       -0.14564301202286
C           35.29389494479172       -7.02849231112885        0.24036936001459
C           35.29700091981739       -5.65268058139949        0.36474612199549
C           33.38908477376305       -2.72765228137252       -0.22797593051277
C           32.11840682042777       -3.38672503254451       -0.14227088396793
C           31.17552101826059       -2.41617138218981       -0.10763412919443
C           31.87112137928260       -1.16605888129749       -0.14906492314830
N           33.22833031111453       -1.36556769009404       -0.18405770007491
H           30.15864486656693        0.07451647513541       -0.25787431204896
H           30.17915743694467        2.66804857186834       -0.32991835957626
H           32.07572821287108        4.54719904461245        0.05312823888141
H           35.11151770106436        4.72359267604711        2.76048884460677
H           35.14727890234385        7.18333609003714        3.10254092737605
H           34.50812380534623        9.69840257832717        0.38481331701878
H           34.22871976900492        7.77086171237367       -1.04180989443256
H           34.20293606471803        5.32533815265960       -1.38501787087540
H           37.22043272695714        4.35339813836179        1.16166064125121
H           39.10251976703193        2.44372781389742        0.92358500776574
H           39.07879631373957       -2.49706313623180       -0.84465673068647
H           37.17332521369279       -4.39026358755435       -1.04708801272787
H           33.37421059846545       -4.86068575414259       -2.31748021353574
H           33.36828727575627       -7.31924406678964       -2.54363307591242
H           34.04069493153688       -9.51030642062855       -1.78365320231445
H           35.82752732845523       -7.65153886071043        0.95005874098727
H           35.82847435556250       -5.17936420366756        1.18261791374874
H           31.97901889202697       -4.45514816087899       -0.11327680503803
H           30.10330228492909       -2.51749562798624       -0.05456629225812
Ni          56.33876607897727       -0.04668961121676       -0.08940722742373
C           59.73265034070084       -0.08168931005212       -0.22470212291338
C           59.07039361858283       -1.28809485321218       -0.30928854417175
C           59.74240745256070       -2.54664657674095       -0.42296421355212
C           58.78492161264821       -3.50187290366037       -0.38720272809516
C           57.52664496269674       -2.82414593745211       -0.26978629887415
N           57.71188083699244       -1.46507150039088       -0.22660472881148
C           56.30601025964243       -3.47579278324353       -0.15587334379557
C           56.28689206908285       -4.95821803063473       -0.15512930399261
C           55.87396456596362       -5.65428619352462        0.98448382340837
C           55.85245180748412       -7.03566389119726        0.98747844744377
C           56.23837481146641       -7.75154475346171       -0.15058786995448
C           56.19939132483256       -9.22544425130998       -0.12385311288644
O           55.84499647249550       -9.86756148211543        0.83133114367078
C           56.64991534828287       -7.05626663790029       -1.28998298620304
C           56.67586381440827       -5.67264170231859       -1.29082232676892
C           55.09751136479036       -2.80077383245489       -0.04974676995856
C           53.82747351649123       -3.45951817966738        0.00454407608980
C           52.88382697956268       -2.48856345111916        0.01139033006517
N           54.93199716794158       -1.43460117867898       -0.07033667900294
C           53.57772539831107       -1.24106028365031       -0.04127688340498
C           52.92445732934394       -0.00772767350555       -0.07392547958745
C           53.60586763117555        1.21037227534105       -0.08233984433067
C           52.94182433582523        2.47450466103117       -0.12052792426965
C           53.90666672588658        3.42275359812267       -0.06043012542863
C           55.15909342880709        2.73324951920754        0.01631824698694
N           54.96370553344474        1.37173892677058       -0.02386413105109
C           56.38555476159846        3.37789188257919        0.10993107630000
C           56.40174779953722        4.85630998014535        0.20427601541959
C           57.00564683143632        5.62061907416591       -0.79773220652718
C           57.01871333595870        7.00161235639142       -0.71319234080605
C           56.43242152031441        7.64500336117190        0.37920975161113
C           56.43687540719974        9.11527504682958        0.49548293163746
O           55.95218555919807        9.71398946575692        1.42087439673806
C           55.82949764633374        6.87990136485251        1.38301327676513
C           55.81135083301093        5.50118240889569        1.29508073555828
C           57.59599954422046        2.69721936434676        0.10292162523428
C           58.87358055797789        3.33961535867209        0.21108371478677
C           59.81022938344376        2.36988048524576        0.09661373149018
C           59.10452459516515        1.13481755410935       -0.06038049707080
N           57.74785748831091        1.34020205105635       -0.03387289738380
H           60.81546111923883       -0.09251395415786       -0.26811882735728
H           60.81145382272825       -2.66315388946727       -0.50239528454305
H           58.90703401317968       -4.57206468981560       -0.42561348380305
H           55.58282353977484       -5.10111733106368        1.87021976610939
H           55.53764410853032       -7.58437630910183        1.86860340285703
H           56.52732165068250       -9.70758564883670       -1.06938105360684
H           56.94739080283772       -7.60418295033673       -2.17817380362202
H           56.98354876036237       -5.13496676164563       -2.18057262810346
H           53.68579353612245       -4.52768504366180        0.01978847327915
H           51.81164791786736       -2.59314039367204        0.04769859442406
H           51.87393844471238        2.60441431169453       -0.18878961602500
H           53.79153196749788        4.49406689134964       -0.07834746157004
H           57.45089983397682        5.12394761001188       -1.65247783632623
H           57.48488007421567        7.58805060349862       -1.49830418172106
H           56.93131600985870        9.63796490132783       -0.35092891718727
H           55.37901086791921        7.38840110084281        2.22865417156384
H           55.35237070229248        4.90970050990452        2.07921028903309
H           59.02112185323193        4.39673239846052        0.36072845799622
H           60.88438288549067        2.46068234620194        0.12246015582394
C           39.44682946669550       -0.01663020532668        0.01183316348309
C           40.66341382941201       -0.01637988207428        0.00507454107011
C           50.29886058433495        0.01030591229102       -0.07820180349182
C           51.51452768405233        0.00551132319352       -0.07987491294238
Ni          45.48273823629916       -0.00809612111261       -0.01832955810425
C           42.07189459596272       -0.01460628758382       -0.00175804447136
C           42.74759331563042        1.20622250779664        0.08920228706761
C           42.09392986322226        2.47452571214839        0.13573166157908
C           43.04737675814459        3.39633474796398        0.41609860693187
C           44.28314738849236        2.68601602496779        0.53998117832731
N           44.09566183299309        1.34864455551788        0.27901174015032
C           45.47855382659122        3.26433879879674        0.95096904760050
C           45.46412820403131        4.67516085911617        1.39650478837750
C           46.25247003718073        5.63470328722316        0.75419451210789
C           46.23153894876915        6.94999380615471        1.17657443739058
C           45.42818009693802        7.33482473693219        2.25498915759923
C           45.42820659748139        8.74438969099897        2.68949380798097
O           46.08134873411777        9.60618079079246        2.16015448730495
C           44.64156860365154        6.37670385139804        2.89872808549363
C           44.65684638413231        5.06142345740611        2.47051453715801
C           46.68139344747883        2.56912605861808        0.96082926025643
C           47.92432249910680        3.11172384133035        1.41849217678524
C           48.88178415941655        2.19953083452732        1.12133670320908
N           46.86959593693452        1.30734859809860        0.44566329571129
C           48.22057027750430        1.09823390380037        0.49694471336369
C           48.88999390736768        0.00854208544398       -0.06545335565295
C           48.21359001981663       -1.08824991817419       -0.60560599064098
C           48.86731783293493       -2.18893058932506       -1.23859476569981
C           47.91191424583761       -3.11618435536319       -1.49323643986941
C           46.67753662694004       -2.58132963365404       -1.00503042330953
N           46.86687224797124       -1.31134163835486       -0.51106034611507
C           45.48225855819657       -3.28841201092130       -0.95664224249380
C           45.47540498974212       -4.70670887428767       -1.37839457985133
C           46.28518605491668       -5.64434884545490       -0.73145168885167
C           46.27743020042425       -6.96961982784514       -1.12904095328350
C           45.46521117823751       -7.38192006937984       -2.18811115596647
C           45.44454516631183       -8.78625770853803       -2.63851442887244
O           44.77141407864075       -9.18370187323915       -3.55450452311212
C           44.65625176341899       -6.44331061633559       -2.83718647854269
C           44.65790415890117       -5.12207221991674       -2.43433460139057
C           44.28893569472677       -2.71294036637408       -0.53677778915269
C           43.05696018595324       -3.42669517913190       -0.39491949910757
C           42.10154047390509       -2.50478931446693       -0.12186877381599
C           42.75079064092468       -1.23368271875163       -0.09340250118741
N           44.09792351992902       -1.37301148622474       -0.29062476581389
H           41.04016512125631        2.62817548362960       -0.02829699756075
H           42.93430623627506        4.46283349454617        0.52263406669116
H           46.86661340034395        5.34236062457014       -0.09004519511343
H           46.83478635525707        7.70235497150878        0.67994228971701
H           44.76753760265684        8.95405400056610        3.55738331129411
H           44.01753019768068        6.66615526117252        3.73796062045270
H           44.05407964850572        4.31710160802893        2.97867718577389
H           48.04022777012507        4.06633735518011        1.90505585179473
H           49.94261928586445        2.25375891757144        1.30520705236467
H           49.92209482993697       -2.23290662749354       -1.45654885398214
H           48.02328163056180       -4.07547265267612       -1.97170387409914
H           46.90834543180340       -5.32938767268451        0.09800320475986
H           46.90414271221567       -7.69245820016854       -0.61688493317908
H           46.10918296587568       -9.46143279985864       -2.05878140456998
H           44.03146841921411       -6.77217152748895       -3.66071051729751
H           44.03877138119742       -4.39439903908488       -2.94681152927654
H           42.94743286934335       -4.49480620713731       -0.48781626281749
H           41.04908306943084       -2.66001194402863        0.04908038990178
