448
 energy: -825.751883310744 gnorm: 0.000681927739 xtb: 6.5.1 (b24c23e)
C          111.27742290993791       -0.01526494597397       -0.08474135422469
C          111.87968253161985       -1.26655031516706       -0.06501271001206
C          111.22079076120954       -2.52780806981745       -0.03560886543574
C          112.17773882493418       -3.50297908022863       -0.03161618472743
C          113.45250570005540       -2.86859540263425       -0.06896292745705
N          113.22180852202493       -1.52250632053129       -0.07819964245443
C          114.71306735791894       -3.47646992805585       -0.07286051718737
C          115.93303487147114       -2.79535025201770       -0.07337535383844
C          117.22641255959905       -3.45097075970940       -0.15035573174727
C          118.15260542758871       -2.47053563856756       -0.13677604400657
N          116.09524839895595       -1.44466936847365       -0.03271057469621
C          117.42485615170628       -1.21838303502185       -0.05785484181833
C          118.06721435099875        0.03459240630573       -0.02368733248931
C          117.43943466071762        1.29349712660512       -0.00024042618919
C          118.08884311237372        2.55346891232272        0.08766713852177
C          117.12727210002065        3.52544117947875        0.09629819293472
C          115.85903704922001        2.88768243898471        0.00543711499683
C          114.59937064635567        3.49690890314931       -0.00160285328490
C          114.57424422725187        4.97758813449232        0.04169391719963
C          115.17788740669488        5.72867662069264       -0.97073553654377
C          115.15279001256631        7.11031227010203       -0.92475702763694
C          114.52916775901052        7.76796048014501        0.13730409450927
C          114.53256592249106        9.25045718698294        0.14429143251712
O          113.91136044166772        9.78383686483456        1.20710916998221
O          115.03799894766144        9.93330560248984       -0.70986975863662
C          113.92667352087129        7.02314620834317        1.15167720943791
C          113.94789281615583        5.64050669020656        1.10061403921732
C          113.37911072259345        2.81370167148852       -0.04166136230054
C          112.07940500602207        3.46356688707519       -0.11493652652812
C          111.16044766697004        2.47764349719497       -0.13926418312011
C          111.89755382719227        1.22705908458078       -0.08964199376448
N          113.23091865030278        1.46810674594307       -0.04230582355059
N          116.09933493289302        1.54020713074562       -0.04266230123712
C          114.73751908364071       -4.95860079580037       -0.08084800845424
C          114.16201733026664       -5.67064133759918       -1.13634343752394
C          114.18470834724793       -7.05439193553494       -1.14686160896934
C          114.77973644285079       -7.75015511777839       -0.09412361798634
C          114.82617816128358       -9.23155868509973       -0.05588436630436
O          114.25718360640448       -9.81421924891769       -1.12218771730109
O          115.32040678556473       -9.87370203210801        0.83543346295489
C          115.35368094897159       -7.04289826730993        0.96407681529235
C          115.33543209475877       -5.66045798930246        0.96939378728507
H          110.19216738045264       -0.01837957724656       -0.09697323643296
H          110.15062210160012       -2.65809715264630       -0.01409373385475
H          112.02053835145061       -4.56880304227944        0.00277136578862
H          113.95110610124891       -0.81731238861860       -0.08778089698560
H          117.38242871485610       -4.51502466259738       -0.22287103788642
H          119.22560053340574       -2.56072770177813       -0.18876287826440
H          119.15632028999063        2.69019249109416        0.14930193468033
H          117.28010708483414        4.58957521277762        0.17203772605750
H          115.65033267350601        5.22080726054083       -1.80394464624126
H          115.61398594669565        7.69887506897974       -1.71026855838126
H          113.95829548381319       10.75116237461296        1.13687350498193
H          113.44463275170146        7.52922361866227        1.97973272927987
H          113.49162819900474        5.06212572794791        1.89601634277588
H          111.91824466497505        4.52870682087978       -0.15742577662122
H          110.08599636850865        2.55667912689011       -0.19299909652734
H          115.37377882874263        0.83226620516883       -0.08805953975798
H          113.71184192509949       -5.13063788767991       -1.96178266232925
H          113.74218089205614       -7.59903438674830       -1.97252417961590
H          114.33143388324271      -10.77718254409768       -1.02189019682263
H          115.81090749447985       -7.59377154557041        1.77867208302310
H          115.77101436126053       -5.11316222300440        1.79755241332026
C          183.40743069847511        0.03689016597434        0.00887052354763
C          182.81765759787882        1.27660238029120        0.21831990586061
C          183.48836023293978        2.50947870249536        0.45591151287410
C          182.54123777129800        3.48333608455737        0.60067025725409
C          181.26083954430450        2.87905575239359        0.44283553400891
N          181.47855148508037        1.54823189582160        0.22565112008271
C          180.00652896955322        3.49546647942215        0.50940203300709
C          178.78061651544999        2.83718728724159        0.37578901360285
C          177.49521578836388        3.51294690863688        0.37118399133241
C          176.55940271084600        2.55208265483657        0.22853865879466
N          178.60527284223650        1.49778882405869        0.21666892001795
C          177.27344243852028        1.29291950028307        0.13939587187435
C          176.61922180006050        0.05133238700104        0.03432547971575
C          177.23394447005126       -1.20928460975329       -0.06798363742303
C          176.57200586674995       -2.46299410862632       -0.15339098939436
C          177.52382529231150       -3.43540720851058       -0.28687612306654
C          178.79783364239040       -2.80264160580864       -0.29804877164752
C          180.05010759521790       -3.41494976403333       -0.42030335929696
C          180.05586367314524       -4.88279914397983       -0.62179013977736
C          179.43096478322371       -5.44435496843256       -1.73892885642945
C          179.43825110427500       -6.81374493589897       -1.92858126291320
C          180.06525825926289       -7.64893375225736       -1.00192390372039
C          180.04502682415637       -9.11057649382479       -1.24883900826628
O          180.67844829486498       -9.82349501177076       -0.30537140120146
O          179.51571944096460       -9.63256261294116       -2.19696058718267
C          180.68754773850594       -7.09400494992016        0.11679206178329
C          180.68402273605005       -5.72251826268663        0.30162930900971
C          181.27706200698543       -2.74494124700142       -0.37305094781161
C          182.56925338632951       -3.38719591454465       -0.55902174241439
C          183.49829775317761       -2.41822145316524       -0.43632329824998
C          182.77454885678247       -1.18349433470033       -0.18774784115604
N          181.43933232792065       -1.41652023495484       -0.16769457667344
N          178.57162926541332       -1.46062518523995       -0.14826499666981
C          179.99188999561667        4.95835700817570        0.74674494000744
C          180.60220190422217        5.83333852882262       -0.15543217321048
C          180.58728360204373        7.19899187095626        0.06930670892019
C          179.96451994013788        7.71210340562066        1.20743762736172
C          179.92468473719597        9.16561365251669        1.49654367477824
O          180.53281586889008        9.91541127805711        0.56495868781893
O          179.40356583791393        9.65160155117212        2.46796229064887
C          179.35496959376457        6.84136564113631        2.11284986028362
C          179.36628901613531        5.47821398586020        1.88350752977027
H          184.49270824725178        0.02999702930857        0.00139829597605
H          184.55924723382734        2.62144102497308        0.51397400415346
H          182.70849406244560        4.52816076446463        0.80621653503616
H          180.74290625259940        0.86207494415239        0.09443013906202
H          177.35065247050335        4.57808684204376        0.45125534446906
H          175.48766870936666        2.66042250947836        0.18426957890807
H          175.50284416530397       -2.59572567802757       -0.11589462736389
H          177.36100412548564       -4.49804138301041       -0.36314217981166
H          178.95595226931133       -4.79694108811861       -2.46735429337528
H          178.96122685799682       -7.25506193866281       -2.79680667380005
H          180.62038185621435      -10.76396092107648       -0.53987171835616
H          181.17123140274603       -7.73887921279255        0.84089594363410
H          181.15604944283055       -5.29269749165714        1.17785367257367
H          182.71878879080728       -4.43429000919991       -0.76764885362584
H          184.57147535752227       -2.49797738465364       -0.51056492539393
H          179.30344212443907       -0.75882399994243       -0.10837823542850
H          181.07342238064422        5.43716896721106       -1.04794245565737
H          181.05717417822564        7.87147684175567       -0.63861065340457
H          180.46167763876625       10.84781249930846        0.82654728892853
H          178.87603306032292        7.25043367877090        2.99566893483538
H          178.90329913459897        4.80261871970368        2.59368862324784
C          119.47707280436309        0.04416853523023       -0.00793987930815
C          120.69357848892221        0.05349155330106        0.01158022340495
C          130.37326554324491        0.09821454749553        0.10746769679004
C          131.59094066846163        0.09729075386335        0.11438315402896
C          141.27472683235641        0.06238153641787        0.08814398472672
C          142.49294215514075        0.05658041996549        0.08355597025596
C          152.17902640174918        0.05506204469248        0.06273003594647
C          153.39736277553331        0.05722422582358        0.06619571727797
C          163.08949791472020        0.08565545844158        0.09201841912696
C          164.30788524560177        0.08310059232132        0.08747933814044
C          173.99165678707507        0.05414704482357        0.03276560519342
C          175.20783962059681        0.05432919902269        0.03575451484880
C          122.10257397101968        0.06288101681795        0.03079577447868
C          122.72775843348786        1.17590126264320       -0.56161899933567
C          122.08166784621874        2.25476235124482       -1.21877622554781
C          123.04548943903269        3.12788156046360       -1.64380291991469
C          124.30925563253112        2.61006553665853       -1.25008809855896
N          124.06747905544833        1.42385666722818       -0.61128938034465
C          125.56820360227329        3.18253429056097       -1.47194240049033
C          126.79216758580495        2.61507391439118       -1.11314997766029
C          128.07046842957337        3.28409671734320       -1.27533725914902
C          129.01004391314908        2.42335551788526       -0.83253746678208
N          126.97528060226708        1.38465079994393       -0.55970654181335
C          128.30556671566615        1.23347576660292       -0.39842028011052
C          128.96587710490934        0.09378038329510        0.10295613066569
C          128.34000875544274       -1.06422532264929        0.60313949089475
C          128.98578159923161       -2.23988401317517        1.06525333791009
C          128.02133331932106       -3.11236319136721        1.48936108668787
C          126.75656285853542       -2.49161778141222        1.30121300382941
C          125.49799420334028       -3.02614791303461        1.60310695107644
C          125.48876942251188       -4.35474581203381        2.26096265012983
C          124.86550641755372       -5.44472897192570        1.64745045757306
C          124.86467827381500       -6.68397193104431        2.26066898057534
C          125.48160582766440       -6.85584571239791        3.50123589106037
C          125.45425929942854       -8.20381404270329        4.11901646523270
O          126.06736213717868       -8.25992289018173        5.31066209662854
O          124.93833396929136       -9.17033841901405        3.61853625974623
C          126.10177994815952       -5.77012169198327        4.11995959934657
C          126.10690642544142       -4.53208687271925        3.50158206741626
C          124.27123499649356       -2.41456762900953        1.33775687541188
C          122.98819587542687       -2.96990165165578        1.73020471220470
C          122.04845606416396       -2.10943970823876        1.28747857751000
C          122.75821841788503       -1.02739561141737        0.63391651245575
N          124.09096793589434       -1.22925067878649        0.69395151661899
N          126.99930341338175       -1.26206214969236        0.75002437397925
C          125.58572279353723        4.50228937637005       -2.14679032379012
C          124.94501639449405        5.60383366666961       -1.57312856444548
C          124.96859657246051        6.83281424916454       -2.20640927507131
C          125.62787483469188        6.98274409284426       -3.42783511075640
C          125.62417644054200        8.32027809538635       -4.06833361181271
O          126.28439793894100        8.35799560197262       -5.23514069764904
O          125.08701172104023        9.29382336105694       -3.60495799882815
C          126.26654269104002        5.88560685358514       -4.00651664357139
C          126.24635262777413        4.65793673240737       -3.36842375717814
H          121.01591076217204        2.34024865425279       -1.35572610911390
H          122.89577917672459        4.04364495987536       -2.19185725622651
H          124.78757390938644        0.81402597309035       -0.23873130643458
H          128.20763252478932        4.28279649393697       -1.65690747787944
H          130.07733189663725        2.56468598662411       -0.77940571204454
H          130.05173643844890       -2.39733628471127        1.06075111515090
H          128.17103300734001       -4.10352871128533        1.88503157942652
H          124.39721237506960       -5.31613468732517        0.67830880473806
H          124.38850976728571       -7.53558491369724        1.78727838964770
H          126.00725559431658       -9.16947532394977        5.64536595056318
H          126.57828882276044       -5.89778830846392        5.08472161216907
H          126.57803629296558       -3.68573626661105        3.98876314146058
H          122.84789509655438       -3.88436845498982        2.28321885653175
H          120.97751612031244       -2.17175344374480        1.39393965464800
H          126.27911198725808       -0.59927466704713        0.48317381984511
H          124.44535142716875        5.49416621598447       -0.61727753508180
H          124.47928782312421        7.69326450567754       -1.76332466688067
H          126.23809766271124        9.26215928117375       -5.58626695879808
H          126.77681680386539        5.99657786097913       -4.95594750078390
H          126.73249665037443        3.80247680270237       -3.82365587817511
C          132.99804498626204        0.09981626918100        0.11528553088733
C          133.62764753976435        1.00756542239785       -0.75835175842841
C          132.99016608329299        1.87323027378857       -1.68345547169183
C          133.95750654157695        2.62301094433857       -2.29557195081258
C          135.21480416189851        2.23918502818806       -1.75595236803668
N          134.96698338032925        1.24548420466979       -0.84785275339941
C          136.47240263092371        2.77193678697533       -2.06805407417582
C          137.69257242422680        2.31528292258947       -1.56656838402215
C          138.96607301526552        2.96211952900862       -1.82517833913212
C          139.90585183612876        2.20966475184053       -1.21615991921833
N          137.87733003823146        1.21372136503295       -0.78772512128221
C          139.20639863567027        1.10832922539619       -0.58603569135472
C          139.86830836874230        0.06829855832731        0.09847905515162
C          139.23601025043752       -0.97573167628504        0.80213254301138
C          139.86982265030363       -2.06732376049889        1.44853975015617
C          138.90267398684446       -2.81109887829287        2.06793628797528
C          137.64839935278721       -2.19129872825875        1.81902576681850
C          136.39305369031581       -2.59793306447499        2.28915614085242
C          136.37943413781781       -3.74752276623905        3.22377865176231
C          135.66097996334287       -4.90521557331671        2.91165044789592
C          135.65071409487575       -5.97725583133457        3.78455624652966
C          136.35453075182946       -5.91144926142676        4.98858351573572
C          136.30991127221060       -7.08526927646010        5.89358401542983
O          137.02206994002870       -6.92255641848121        7.01850184753096
O          135.69958614054212       -8.09803240601487        5.66341531740041
C          137.07194177537716       -4.75781506956198        5.30622877906065
C          137.08503058343697       -3.68786005389449        4.42875918272824
C          135.17208039268101       -2.01115863029471        1.95071022661924
C          133.89856477631821       -2.39843589845308        2.52997249067373
C          132.95857619829766       -1.64529876041598        1.92192718688766
C          133.65876170122090       -0.79669388930275        0.97891234581103
N          134.98781689087457       -1.01884668504439        1.03725137960470
N          137.89792026896953       -1.10004341608021        1.03091249505935
C          136.49140767170806        3.91469966150099       -3.01093191549154
C          135.79752097694700        5.09170365176917       -2.71611965329901
C          135.81894148574037        6.15485957399792       -3.59978547696572
C          136.52982572811575        6.06025951935255       -4.79765901930138
C          136.51809060792581        7.22521708504599       -5.71504153385209
O          137.23707825023629        7.03614481025072       -6.83139160054570
O          135.92629486537660        8.25251181528984       -5.50124222708014
C          137.22349390825082        4.88744914737242       -5.09760670293094
C          137.20494487283514        3.82653393621740       -4.20949519205994
H          131.92812189040902        1.90630817544417       -1.86245470303773
H          133.81422341925150        3.36722826717311       -3.06173087029174
H          135.68215815052355        0.75592865255109       -0.32067688010309
H          139.09958650781033        3.87725805490944       -2.37885216872412
H          140.96976788445249        2.37470884797479       -1.16904418049782
H          140.92932760971766       -2.26138539331257        1.42950033124223
H          139.04378826589746       -3.71615041808260        2.63569793572534
H          135.12505016643894       -4.96355213672775        1.97118141385709
H          135.09970412663063       -6.88029828229779        3.54582219352401
H          136.94387918443400       -7.73006125802346        7.55210177171420
H          137.61647576442968       -4.70056541149092        6.24130043608059
H          137.63047231086529       -2.78609465666518        4.68361359701827
H          133.76466733983727       -3.13252121734262        3.30780709737613
H          131.89410296023897       -1.63517060497115        2.09141548309328
H          137.18479758264368       -0.47510314348334        0.67042704997318
H          135.25724914979156        5.17384058243133       -1.77978681533029
H          135.28770892506816        7.07299391020018       -3.37407629982130
H          137.18096037720002        7.83961218560643       -7.37378909067404
H          137.77430510160590        4.80856872406942       -6.02739687380536
H          137.73293456017757        2.91034736133737       -4.44866401846643
C          143.89925096607243        0.05720350224681        0.07816929615104
C          144.52875841401479        0.90875854967914       -0.85133326203584
C          143.89373956460409        1.71289266948511       -1.83147930608833
C          144.85951686643969        2.44294091919719       -2.46957975287143
C          146.11364749816568        2.10695623967524       -1.89246725121984
N          145.86634326754290        1.15721662352812       -0.93835389366051
C          147.36692547839442        2.64842255153061       -2.20775766883536
C          148.58680957949261        2.22940062703566       -1.67369762488266
C          149.85420620861751        2.88663989103569       -1.93546541749294
C          150.79701582565434        2.16382087838005       -1.29579368116238
N          148.77727163991844        1.15347405845268       -0.86113704429645
C          150.10549449023043        1.07035086427755       -0.64400950444813
C          150.77283640284682        0.05175055733707        0.06724736336883
C          150.14257656772261       -0.97910978989409        0.79245955341881
C          150.77598109114660       -2.05729553124896        1.46090237927542
C          149.81004178038276       -2.78049259692476        2.10645647410047
C          148.55720162576773       -2.16022008623886        1.85254528505703
C          147.30494142290144       -2.53773757872853        2.35473946204658
C          147.29306214741646       -3.64945988398394        3.33372085609314
C          146.54975575360828       -4.80620737863076        3.08160038436731
C          146.54030992731361       -5.84333689023089        3.99568095326407
C          147.26942908888290       -5.74266340234925        5.18212500256887
C          147.22442490308762       -6.87949838181895        6.13315471042105
O          147.96115439268323       -6.68484383028360        7.23701040300012
O          146.59402154634336       -7.89036293367239        5.95459196679132
C          148.01128259301836       -4.58961732491607        5.44025317019294
C          148.02374844267445       -3.55495234942159        4.52146172292866
C          146.08502588042222       -1.95228581930754        2.01059624949068
C          144.81834570111195       -2.29310485740296        2.63196337425239
C          143.87524885419145       -1.56574950073836        1.99771281351992
C          144.56625478279119       -0.78108521494104        0.99496134729363
N          145.89432115902932       -1.00939570097637        1.04710491754022
N          148.80545892936524       -1.09267107713061        1.03237447079857
C          147.37977790057172        3.75861836980321       -3.18833766605731
C          146.65232138780064        4.92758202704937       -2.94635114898946
C          146.66787383842509        5.96234530018011       -3.86306540162153
C          147.40674574901351        5.84702407421469       -5.04205832195946
C          147.38784912111669        6.98202322928239       -5.99611949411182
O          148.13872534168581        6.77730857478363       -7.08846356277148
O          146.76535058517649        7.99976362147536       -5.82897174547885
C          148.13372747128091        4.68217779346360       -5.28957711539709
C          148.12061264721606        3.64961518322435       -4.36851609175376
H          142.83456039133026        1.72012792621595       -2.02802322498115
H          144.71729757515061        3.14291181062188       -3.27655105009730
H          146.57995266847470        0.70602447139856       -0.37606731764453
H          149.98194936009227        3.78823185909508       -2.51223847845655
H          151.85797925081320        2.34455953376248       -1.24158406096357
H          151.83420260781944       -2.25745931742259        1.43822442747623
H          149.95102907079291       -3.67185279818658        2.69552729131273
H          145.99359397259917       -4.89188481274338        2.15507087541725
H          145.97021932495394       -6.74562277171409        3.80338169253063
H          147.88093737817800       -7.46968439573431        7.80314474277181
H          148.57520813206327       -4.50507575081242        6.36166108629255
H          148.58819570795501       -2.65307184223963        4.73037605558238
H          144.69119219444673       -2.97955428722677        3.45324304091552
H          142.81453416249329       -1.53356347462189        2.18555868516244
H          148.09270248684524       -0.47408390689322        0.66049022062015
H          146.09038469618559        5.02651718801826       -2.02449195298991
H          146.11050116075322        6.87408928409909       -3.67818354178148
H          148.07566188973365        7.56201390400067       -7.65695563289245
H          148.70611305444129        4.58710946396955       -6.20470675516735
H          148.67429994343894        2.73902263305090       -4.56753281215872
C          154.80346006886651        0.06655098069387        0.06985819778770
C          155.43636014793265        0.93080517976324       -0.84568501027857
C          154.80688479807799        1.74266050658275       -1.82282684991379
C          155.77519086380107        2.48379718527332       -2.44410865956120
C          157.02548019806304        2.14760904616312       -1.85873082276536
N          156.77356758874490        1.18606336738915       -0.91765788321594
C          158.27845302979514        2.70113430307747       -2.15341488602274
C          159.49586643883785        2.28322170515846       -1.61232883251875
C          160.76013447266814        2.95639412089518       -1.84748634397930
C          161.70287053356884        2.22781515528253       -1.21412693643758
N          159.68732706519384        1.19270467680513       -0.82002653366218
C          161.01458294652736        1.11444699921951       -0.59361098231222
C          161.68287046196377        0.08114705924782        0.09519730259507
C          161.05086523345179       -0.96698362923550        0.79365375468811
C          161.68175251216675       -2.05998321733059        1.44000915799963
C          160.71340074324104       -2.79838827989119        2.06437452144831
C          159.46134524222734       -2.17288238873575        1.81958594510727
C          158.20742729652719       -2.56164037236747        2.30901356808220
C          158.19145680937706       -3.69676779133168        3.26066619437334
C          157.44718321734564       -4.84571972908477        2.97745504432498
C          157.43326400890885       -5.90527896482521        3.86533731115719
C          158.15880928582953       -5.83526608789595        5.05617319035770
C          158.10966235925713       -6.99559493682480        5.97812433906150
O          158.84385433136643       -6.82991382825306        7.08840473267441
O          157.47761810315166       -8.00038237639526        5.77295804312572
C          158.90122705986172       -4.69000013957006        5.34547274688373
C          158.91817072706846       -3.63276754666494        4.45281439993807
C          156.98830875501372       -1.96846506227511        1.97559234328369
C          155.72118167866088       -2.32073141969180        2.58972303315697
C          154.77853046982085       -1.58217482787146        1.96791467529940
C          155.46992594245572       -0.78085272221770        0.97886240468813
N          156.79822286464653       -1.00810989453830        1.02947718213715
N          159.71266734635972       -1.08655243969687        1.02551068516970
C          158.29403988048392        3.82288847062399       -3.12066047199621
C          157.55310037301609        4.98272058163678       -2.87558651238520
C          157.56992797326313        6.02685678058363       -3.78159211348260
C          158.32367751268382        5.93030715364250       -4.95282854074769
C          158.30647566789196        7.07520415589749       -5.89501151884790
O          159.07198547247970        6.88847789355099       -6.98040375963238
O          157.67353504251960        8.08591529966692       -5.72451796596869
C          159.06426077833206        4.77470091834478       -5.20337920164731
C          159.04989082025617        3.73281552052026       -4.29293236791041
H          153.74960412194054        1.74757282155376       -2.02910787291433
H          155.63694504867124        3.19140569153294       -3.24507578648561
H          157.48378890710342        0.73107081013201       -0.35417290270982
H          160.88528599161245        3.87156374917790       -2.40309414299927
H          162.76152024228921        2.41664396690819       -1.14444294786451
H          162.74011486198327       -2.25916110935814        1.41778942818333
H          160.85245725393980       -3.70296651420209        2.63340978526171
H          156.89373119636690       -4.90730116321997        2.04738459943404
H          156.86257126994647       -6.80167407624658        3.64878746015448
H          158.76062095527300       -7.62840130160057        7.63465090564605
H          159.46202010298873       -4.62917115428138        6.27064474794441
H          159.48280224332655       -2.73699152563164        4.68603293096983
H          155.59360267807992       -3.02169268306307        3.39858262229787
H          153.71781718143336       -1.55290836809884        2.15582142725685
H          159.00115127425323       -0.46064932948024        0.66362142355448
H          156.97934377707250        5.06722880139610       -1.95959238291218
H          157.00188153749548        6.93147637589734       -3.59421033646570
H          159.00956971359730        7.67901048724555       -7.54084180095770
H          159.64801755204061        4.69406180351782       -6.11269234357983
H          159.61432740291471        2.82939908174480       -4.49447763802040
C          165.71484186156187        0.08323323290416        0.07747944726266
C          166.34236881089285        0.96751376112768       -0.82210299304841
C          165.70323750852603        1.80932767894845       -1.76774784183653
C          166.66801419577706        2.54617214621454       -2.39842818922671
C          167.92692896674765        2.17809052465373       -1.85094598658743
N          167.68126754872813        1.20647848007600       -0.91815489404041
C          169.18249828759116        2.69950974931127       -2.18753307605301
C          170.40679928108617        2.25453010806314       -1.68376966216450
C          171.68403326851868        2.87241309154010       -1.99366973149896
C          172.62579474378364        2.13664992569068       -1.36796682705886
N          170.59060720479675        1.18824143147526       -0.85971446866144
C          171.92265661769426        1.07775646801997       -0.67103837262370
C          172.58130022134372        0.05530617158736        0.03626781059971
C          171.95722202079085       -0.98121510340874        0.75393910029814
C          172.60181948924466       -2.03827779530346        1.44718087758890
C          171.63820652889021       -2.78137209654453        2.07283128707669
C          170.37697761059360       -2.18976439167310        1.79006101553767
C          169.12223432613408       -2.59089665780366        2.26601186110232
C          169.10548072063963       -3.72937211530296        3.21457705283689
C          168.39029413617337       -4.89057717301150        2.90777281713616
C          168.37345660658698       -5.95425775790769        3.79058987037275
C          169.06734283535508       -5.87620399214118        4.99971025142952
C          169.01514865750741       -7.04092915252007        5.91561062822206
O          169.72273853320959       -6.86987203117762        7.04247759885019
O          168.40275703505330       -8.05416329336927        5.69275815707975
C          169.78049193911147       -4.71858089954580        5.31247577684872
C          169.80006495185961       -3.65687198570390        4.42498145372897
C          167.90147833266877       -2.00452532718485        1.92631744447441
C          166.63354352248854       -2.37308151779988        2.52934113745699
C          165.69139014612864       -1.62037894630960        1.92449942121208
C          166.38326292179624       -0.79434279281768        0.95601880676275
N          167.71127341918250       -1.02520292963921        0.99964952028844
N          170.61839138409161       -1.12014802152647        0.97133681180054
C          169.19292538691096        3.81096265133149       -3.16757694068656
C          168.50774022000331        4.99959039495527       -2.90013987170050
C          168.51492702024268        6.03194606397672       -3.81977400802583
C          169.20343872608680        5.89455090577397       -5.02657952072728
C          169.17530688036541        7.02650066244119       -5.98368352255527
O          169.87980291512079        6.80092505673787       -7.10280128769844
O          168.58231740132015        8.05875198188958       -5.79860516275078
C          169.88927522454864        4.71038247728436       -5.29873237257062
C          169.88432275871898        3.68008918768326       -4.37505075766274
H          164.64165046336856        1.83481383477879       -1.94860813758866
H          166.52216256526205        3.27143223324608       -3.18205917739692
H          168.39795787342638        0.73226043391462       -0.37915971114190
H          171.81904083416507        3.75610387054943       -2.59593264702946
H          173.69466243433016        2.27736241568328       -1.36283239447277
H          173.66699836039089       -2.20336822245811        1.46152954974450
H          171.78666016191326       -3.66445060468557        2.67250388673003
H          167.86090421198605       -4.95735149380252        1.96415500759520
H          167.82480405296212       -6.85986436660094        3.55620018727493
H          169.63611171741613       -7.67083264205350        7.58454028147002
H          170.31608054164761       -4.65140757476479        6.25204936776969
H          170.34118371315989       -2.75164665806832        4.67665231404207
H          166.50534541021284       -3.09395457051433        3.32038580800700
H          164.63053212459064       -1.59642634342334        2.11199044608317
H          169.90052797390112       -0.51307318275226        0.59008208830201
H          167.98423374982917        5.11458829003140       -1.95776362549821
H          167.98917908929357        6.95836602284608       -3.61617130099839
H          169.81066308048244        7.58403545395947       -7.67272691595890
H          170.42241245244094        4.59818057898906       -6.23536932887269
H          170.40481212187618        2.75444663189379       -4.59322169510480
