342
 energy: -587.889940741064 gnorm: 0.000763086961 xtb: 6.5.1 (b24c23e)
C           70.21431485158307        0.01334962060294       -0.01066458642361
C           70.82098547362473       -1.21786355264253       -0.22390968341856
C           70.19001655824077       -2.47584701819733       -0.44466730140694
C           71.16965231215670       -3.41425653788548       -0.60918276021141
C           72.42981721742360       -2.75960371414923       -0.49384484345109
N           72.16814078600633       -1.44027280882736       -0.26159387765242
C           73.69044802287476       -3.33494369236717       -0.59941301215063
C           74.92060340477994       -2.70202877748521       -0.49006203820109
C           76.18607034635336       -3.40008245543914       -0.63049940841084
C           77.15224989442875       -2.47301677983280       -0.46685370083537
N           75.13823411815031       -1.38126886171759       -0.24621346593260
C           76.47506021468321       -1.21244918581559       -0.22311117309272
C           77.14994954614592        0.00634545815756       -0.00592985509961
C           76.51637587588370        1.24433764422609        0.21231269565850
C           77.13915800051551        2.49811757186768        0.45560835239062
C           76.15536242219562        3.43389269271671        0.61952394799987
C           74.90053461420655        2.77726764879565        0.48461417954933
N           75.17085201929163        1.45793303445352        0.24016913937133
C           73.64129222947601        3.35641509368049        0.58330445801175
C           72.41014505044177        2.72401815975902        0.46561443630279
C           71.13690162704033        3.41767734092480        0.58635468972433
C           70.17746931150829        2.48514539906285        0.42087420205920
C           70.86548703420803        1.22311239755822        0.19977787412329
N           72.20690131542250        1.40615267069776        0.23252209606469
H           69.12954373789397        0.02242031672611       -0.00973028414412
H           69.12264687582243       -2.62761765993040       -0.47197183510458
H           71.04459333184924       -4.46928512039174       -0.79472988608624
H           72.87178635186197       -0.72064497334439       -0.13444414176637
H           73.70593103882197       -4.40299644313175       -0.79206182547929
H           76.28783673404465       -4.45531553721349       -0.82987412460193
H           78.22184139824923       -2.60106921119591       -0.50826978983680
H           78.20482652700406        2.65318722983401        0.50325036909047
H           76.27673932339634        4.48658746889471        0.81939645136525
H           74.47048340783675        0.73654723936574        0.10302167238028
H           73.62884322268476        4.42421600953229        0.77713473852889
H           71.02864350800489        4.47486745880433        0.77269933969108
H           69.10546356440734        2.60516539223954        0.44108478069201
C          165.48934674798585       -0.02572957164583       -0.01297471625784
C          164.88494265550486        1.19254585992299       -0.29547534998396
C          165.51839946559690        2.43373639394031       -0.59161773234742
C          164.54065022195147        3.36322307050752       -0.80913252136969
C          163.27918377908097        2.71964553790892       -0.65263060932555
N          163.53824932070413        1.41585639322757       -0.34271816585355
C          162.01970245669008        3.29021826142368       -0.79193610271003
C          160.78846677320118        2.66744532998477       -0.64353055804863
C          159.52412772780681        3.35700130859510       -0.82865563959293
C          158.55655652667517        2.44357922190038       -0.60681478314222
N          160.56884364882328        1.36511367229271       -0.31631855220397
C          159.23179791982474        1.20013385519399       -0.28273224327710
C          158.55454418446030       -0.00085083274251        0.01238056280832
C          159.18552766530419       -1.22376102821780        0.30912251206071
C          158.56067733971730       -2.45801596109347        0.63320741875744
C          159.54283370747359       -3.38429220266274        0.85198402099886
C          160.79867655270036       -2.74090587811688        0.67104933916610
N          160.53066459421785       -1.43858149575048        0.34624340968738
C          162.05682694186407       -3.31702947319497        0.79793758674650
C          163.28902689197349       -2.69715604234577        0.63428330547973
C          164.56108024655592       -3.38644261735352        0.78769088894437
C          165.52200717461906       -2.46831631684349        0.56142587251884
C          164.83605737480647       -1.21933715537824        0.27072644416971
N          163.49445097192356       -1.39602033984379        0.32200917770083
H          166.57408319286191       -0.03773447920854       -0.01605128568762
H          166.58606140397168        2.58093749733549       -0.63024530614169
H          164.66763409147424        4.40512974089343       -1.05704465267751
H          162.83315333348756        0.70681318435739       -0.17165889172262
H          162.00616543819669        4.34443493476698       -1.04985803943095
H          159.42384730219885        4.39743706604205       -1.09532893838745
H          157.48720694288835        2.57041570444556       -0.65700250769447
H          157.49487152689852       -2.60707801134840        0.69475477130695
H          159.41959234929763       -4.42204805241759        1.11788135591346
H          161.23261778090884       -0.72963005262044        0.16089371324372
H          162.06713889750162       -4.37108294286720        1.05633652619564
H          164.66776388173631       -4.43118227553595        1.03511662039405
H          166.59377440534419       -2.59042626080337        0.58173485064248
C           78.55819490537128        0.00224431269762       -0.00438617059412
C           79.77570746825910        0.00368109309440       -0.00238932858517
C           89.60868826176483        0.01664314446532        0.01511093931554
C           90.82666873264297        0.01685922615266        0.01227068352430
C          100.66160194757231       -0.00462356823607        0.00538201310117
C          101.87970673289267       -0.00744923796709        0.00251714038735
C          111.71046632215003        0.00962481504097       -0.00851582053880
C          112.92828135007990        0.01117508622726       -0.00994752762047
C          122.76304850269105        0.00808415859041       -0.00363661548808
C          123.98138420736211        0.00609943599119       -0.00261504665494
C          133.82503547687071       -0.01025185572851        0.00973605676087
C          135.04352641868806       -0.01232584360165        0.00817277276965
C          144.88130083262604       -0.02410484271406       -0.00467304479694
C          146.09913750052897       -0.01633727163766       -0.00379254469516
C          155.92883772134476        0.00678671721084        0.00954521532799
C          157.14634708074780        0.00618088648926        0.01125524964630
C           81.18312009487774        0.00786654899590        0.00105913346613
C           81.82366304674714        1.23493863203034       -0.25846823099478
C           81.21509761728839        2.48411590454411       -0.54956177584142
C           82.21080457816382        3.40304525351504       -0.74209696059853
C           83.45681151265657        2.73857749691521       -0.57711014187988
N           83.17169479295808        1.43285376236508       -0.28624256963082
C           84.72202982099856        3.30431826339687       -0.69597967091416
C           85.95531867952027        2.68651214212465       -0.55790105641576
C           87.21530187800383        3.38908817900366       -0.72253876788897
C           88.18897319117487        2.47589217193736       -0.52634435463596
N           86.18404528645802        1.37691517811672       -0.26653341605990
C           87.52167359208983        1.21991562299925       -0.23927235972198
C           88.20210346281846        0.01109362581561        0.01683917402817
C           87.56156535660840       -1.21588759719318        0.27698660137648
C           88.16982018655401       -2.46555727645278        0.56736530765639
C           87.17390771054141       -3.38269843543779        0.76530804757425
C           85.92781127473937       -2.71702111556240        0.60394892648419
N           86.21349034689420       -1.41192416768875        0.30991222220128
C           84.66291194894524       -3.28124230904633        0.72817314376609
C           83.42931761651857       -2.66334670218754        0.58950593651871
C           82.16945768383852       -3.36580550156725        0.75677941138077
C           81.19548707523201       -2.45421861535802        0.55552146362548
C           81.86241454141923       -1.19931401312185        0.26308342889729
N           83.20083657752227       -1.35551880006585        0.29279959521633
H           80.15148999948322        2.64887742744840       -0.60870390862022
H           82.10179963614593        4.44899808398596       -0.98071839820428
H           83.85962865339846        0.70578159831801       -0.11870459285481
H           84.73477537382398        4.36384824968825       -0.93256677281132
H           87.30904095391324        4.43739440673494       -0.95914289362213
H           89.25774829449009        2.61054028812961       -0.57219540353415
H           89.23327960661982       -2.63167642232013        0.62226758869021
H           87.28233352111309       -4.42845051728236        1.00495202894046
H           85.52579934944649       -0.68441349312682        0.14348821153586
H           84.64979706026223       -4.34001540581372        0.96821946351428
H           82.07628305270806       -4.41305588998549        0.99817644520273
H           80.12694244584139       -2.58924717904539        0.60128042233060
C           92.23322043255125        0.01935302077164        0.00946582028772
C           92.87820959769256        1.25692689780051        0.19976663370419
C           92.27499884727342        2.52340214683609        0.41796033871547
C           93.27478969568602        3.44661103818061        0.56214514525308
C           94.51798680607081        2.76779042892043        0.43922684015174
N           94.22711762770848        1.44920912108466        0.22079233372200
C           95.78549551329368        3.33307977442829        0.53192142739189
C           97.01664385791376        2.70350725186087        0.43294960347800
C           98.27874344447153        3.40896455498855        0.56539791483920
C           99.24946541022749        2.48295010651418        0.42156929829992
N           97.24122855080270        1.37932709269288        0.21268817695093
C           98.57837015206668        1.21618376973129        0.19811879585196
C           99.25511242476162       -0.00659835332079        0.00599192577486
C           98.60999628339526       -1.24344998610753       -0.18860331190323
C           99.21307045527725       -2.50963273209897       -0.40918533198186
C           98.21323980439507       -3.43223943840534       -0.55647011945503
C           96.97003251903824       -2.75349675156914       -0.43269427554136
N           97.26111362334619       -1.43533512596931       -0.21123547875027
C           95.70268288279001       -3.31874974599154       -0.52546737526957
C           94.47137062675587       -2.68977106195512       -0.42279601335258
C           93.20921483921396       -3.39594226159256       -0.55082629870732
C           92.23844318154106       -2.47066878780215       -0.40257265247360
C           92.90965929552547       -1.20347758699063       -0.18209476963639
N           94.24699122372587       -1.36596791601108       -0.20124881435741
H           91.21222009269086        2.69674201033347        0.46331739417015
H           93.17046211877383        4.50484994301426        0.74114281389481
H           94.91158072716178        0.71030490525210        0.09644661311803
H           95.80237770668431        4.40395383785766        0.71020432767843
H           98.37569176537070        4.46796045693276        0.74674507257622
H          100.31849002018234        2.61578872030479        0.46547553493305
H          100.27581192588626       -2.68322936645494       -0.45407156841458
H           98.31751376313672       -4.49012350796711       -0.73766984132106
H           96.57657338111130       -0.69659455722627       -0.08627204807317
H           95.68578115698769       -4.38931238524688       -0.70564549766171
H           93.11211471598830       -4.45490669259297       -0.73214663472966
H           91.16929297067131       -2.60427465407709       -0.44158073829725
C          103.28622218588372       -0.00194680287021       -0.00100526866459
C          103.92604731524288        1.22862832045977       -0.24688182745412
C          103.31652395528936        2.48133181100538       -0.52008493400355
C          104.31145543608179        3.40286943117923       -0.70292193365859
C          105.55805301888601        2.73674585953837       -0.54906091033842
N          105.27391199514886        1.42687789833276       -0.27563407099855
C          106.82256579045672        3.30539654255269       -0.65933809246777
C          108.05646414484441        2.68699041313088       -0.52875175515275
C          109.31621612677246        3.39391686678969       -0.67591581161448
C          110.29038144290331        2.47848784521764       -0.49285099576616
N          108.28546237927898        1.37254663196116       -0.26128431848781
C          109.62322469503158        1.21633965953806       -0.23354666609671
C          110.30389042461952        0.00217251809879       -0.00708158550874
C          109.66530248027779       -1.23210464398088        0.22088318876734
C          110.27566315851810       -2.48873118434470        0.47426739921969
C          109.28081475665704       -3.41108079738587        0.65377319475505
C          108.03377889072610       -2.74167852098252        0.51768110460326
N          108.31749176946221       -1.42946681468589        0.25541076034208
C          106.76907451400555       -3.30768125408690        0.63845345703990
C          105.53522886528124       -2.68568743834340        0.52418513939651
C          104.27604416074585       -3.38952668544313        0.68902509234302
C          103.30157404718884       -2.47300392683379        0.51293395249246
C          103.96754505389193       -1.21367877270555        0.23819364062495
N          105.30539935927912       -1.37167491284857        0.25460206637893
H          102.25299446528740        2.64684882092886       -0.57467078227497
H          104.20167981993404        4.45189109347922       -0.92735849365757
H          105.96235257822934        0.69775196130061       -0.11975347839330
H          106.83437652686601        4.36843406330974       -0.87969959265409
H          109.40939521725255        4.44658620988706       -0.89245271569610
H          111.35928768085351        2.61517433206702       -0.53141005159445
H          111.33960054598630       -2.65588295211814        0.51794179909284
H          109.39093419077994       -4.46280887863388        0.86491886038640
H          107.62880321107720       -0.69787389091909        0.11256851210064
H          106.75684079592942       -4.37162809471603        0.85456977235546
H          104.18335577624305       -4.44097139885425        0.91183192759017
H          102.23309818006334       -2.60756815742553        0.56523288624285
C          114.33482415390685        0.01654941627266       -0.01029507222298
C          114.97648486810851        1.23809927816958        0.27125917679790
C          114.36983530000940        2.48455122864675        0.57788627925660
C          115.36751843917912        3.39422108640031        0.80145873458059
C          116.61251613648490        2.72660999656589        0.64035828914540
N          116.32490226075871        1.42872012266918        0.31817381198341
C          117.87875241700415        3.28086868127969        0.79518956619298
C          119.11111004876599        2.66058628900042        0.65850043539090
C          120.37103490170712        3.35074475340166        0.86828174619003
C          121.34397317146114        2.44202555313743        0.64894404706480
N          119.33920855793063        1.36190558603773        0.32075544546943
C          120.67669423317851        1.20152393384656        0.30198951647112
C          121.35673671046743        0.00417101212909       -0.00560842334465
C          120.71333521736717       -1.20954726507850       -0.31832366554673
C          121.31820825347788       -2.44723734444654       -0.66067177542807
C          120.32024805150286       -3.35636753010487       -0.88458934178193
C          119.07610840990685       -2.69693089311396       -0.68861539043395
N          119.36483323986843       -1.40332608471883       -0.35008617467369
C          117.81019689623950       -3.25818930921430       -0.81903348064525
C          116.57745210032610       -2.64563962747864       -0.65428393123893
C          115.31651549095658       -3.34368447438527       -0.83032632536242
C          114.34389931682614       -2.43598813836480       -0.60497918751683
C          115.01318086143351       -1.18765821896476       -0.29053140349034
N          116.35072352492588       -1.34435751229304       -0.32702116943529
H          113.30637247990779        2.65385250170452        0.62502657450417
H          115.26071442243628        4.43600067457049        1.05869037331990
H          117.01114895257366        0.70151791930360        0.14450910943578
H          117.89359671028515        4.33313790725648        1.06239065874617
H          120.46530929251340        4.38824855787555        1.14827958037593
H          122.41226150791275        2.57041417238543        0.71566344746876
H          122.38085108871255       -2.61180514163651       -0.73087374806250
H          120.42641430051563       -4.39247545631184       -1.16391049441326
H          118.67922631027731       -0.68188726035819       -0.15183433701397
H          117.79617862287759       -4.30958501906709       -1.08957653409014
H          115.22148758503721       -4.38551893607467       -1.09362884528071
H          113.27475987828885       -2.56918378592586       -0.64843843412921
C          125.38760848987567        0.00853985014957       -0.00099939731223
C          126.03370087087258        1.25913664775948       -0.05985837519270
C          125.43255950000271        2.54251884570294       -0.14040796021605
C          126.43325322187123        3.47560493508099       -0.16516155242833
C          127.67522207992860        2.78640428203815       -0.10454540812807
N          127.38267624473299        1.45145412201071       -0.04669390211021
C          128.94245192855072        3.35963066857042       -0.09347972281695
C          130.17391739914547        2.72480864891526       -0.04661824304630
C          131.43379924835313        3.44558087406729       -0.01918751910538
C          132.40625303072335        2.51085680105245        0.01225147599977
N          130.40167938252387        1.38295657067770       -0.02920509420112
C          131.73899851544564        1.22294832547572       -0.00141662071682
C          132.41881582250244       -0.01365538490668        0.00958475837541
C          131.77248536830919       -1.26567296744824        0.02047928050858
C          132.37297908778194       -2.55178424117928        0.01481417292072
C          131.37212913361992       -3.48454450906861        0.04288396778203
C          130.13035463703935       -2.79269677810493        0.06177348656324
N          130.42334960959278       -1.45665408520026        0.04268881922786
C          128.86311151044922       -3.36456125753394        0.10350004842184
C          127.63140098643133       -2.72851936505742        0.10916150614141
C          126.37122409665567       -3.44653917407378        0.17441419108334
C          125.39865535317718       -2.51175257999296        0.14677455730758
C          126.06643737248861       -1.22685408907216        0.06028411840460
N          127.40384958592834       -1.38811076702825        0.04677389513127
H          124.37050743876509        2.72097529721704       -0.17858088652228
H          126.33031403917167        4.54748895727922       -0.22210322618160
H          128.06561799742542        0.70216064857391       -0.00015122656960
H          128.95883249221603        4.44480933263951       -0.12476851569486
H          131.52839686915064        4.52016707613497       -0.02078523359126
H          133.47426557689300        2.65212343615749        0.04812608936536
H          133.43485310974850       -2.73268806815742       -0.01179656628995
H          131.47495660465057       -4.55794059776654        0.04806617721830
H          129.74032210847247       -0.70599961566805        0.04533925975260
H          128.84700337773970       -4.44971343212887        0.13606682172261
H          126.27660451117674       -4.51937033930048        0.23596519186840
H          124.33034647677381       -2.65064062594247        0.18649357433839
C          136.44981854971772       -0.00913150197707        0.00499169633354
C          137.09459953956124        1.19760980718761       -0.33218523437724
C          136.49147517351292        2.42998208523066       -0.69585567841515
C          137.49052144739352        3.33305243279935       -0.93855435114518
C          138.73376469254919        2.67496450336813       -0.73333891348441
N          138.44339799353159        1.38834529281946       -0.37017590791358
C          140.00025281443553        3.23172655672667       -0.87698269643941
C          141.23273834228439        2.62133011452540       -0.70342326725386
C          142.49369983835280        3.31507279805624       -0.89540172703330
C          143.46620881255944        2.41151769338892       -0.65385161726959
N          141.45947585877363        1.32646820313315       -0.35112590363067
C          142.79692793141899        1.17007477035764       -0.31311772087225
C          143.47486271046265       -0.02795072494317       -0.00614997545020
C          142.83173905852908       -1.24211165828248        0.30318100508845
C          143.43703926975596       -2.48140284055335        0.63981156024665
C          142.43853084567891       -3.38508117711510        0.88281865728679
C          141.19424570616385       -2.72062245046416        0.70423904393035
N          141.48312205226810       -1.43094376174664        0.35217847579897
C          139.92753568970963       -3.27046873485584        0.87004709379298
C          138.69562524094277       -2.65263356222999        0.71944203033838
C          137.43575329885400       -3.33858813498103        0.94290517836334
C          136.46299539636232       -2.43416992022119        0.70605304564799
C          137.13001207325979       -1.20058383756404        0.33515675753635
N          138.46753638960735       -1.36088685837148        0.35630167954262
H          135.42913333685468        2.59564457878370       -0.76641021623598
H          137.38526561362923        4.36409564909082       -1.23628224937824
H          139.12805095915377        0.66899194730249       -0.16087317897095
H          140.01486702016550        4.27789394308909       -1.16725700679155
H          142.58878319137142        4.35151092564940       -1.17917718417323
H          144.53525558049066        2.54326757551741       -0.70192675451950
H          144.50024833936345       -2.65016898936636        0.69298258519759
H          142.54426378164121       -4.42059573926742        1.16447782303156
H          140.79795110671131       -0.70676310469644        0.16215024391615
H          139.91172457813639       -4.31651593840713        1.16041419107476
H          137.34155934525722       -4.37057027035537        1.24268671045945
H          135.39485228957102       -2.56145220553217        0.77530658480819
C          147.50569140601417       -0.00835969289789       -0.00148518015297
C          148.14371764426568        1.23534178649922        0.16943016110680
C          147.53205162169499        2.50147720368009        0.36657009056078
C          148.52566935041182        3.43259045749711        0.50099252981829
C          149.77346596186578        2.75946381109304        0.39277438061561
N          149.49124142673335        1.43596360149350        0.19244048477370
C          151.03730022710050        3.33271875221895        0.48211484366546
C          152.27175026728133        2.70732076295238        0.39482745160735
C          153.53062178209325        3.42045324970208        0.51861864640331
C          154.50574749062022        2.49726713459423        0.38861506521546
N          152.50204298467222        1.38168747295396        0.19356089444904
C          153.84054286292104        1.22444720405919        0.18234845981799
C          154.52145086566179        0.00250383147831        0.00688478607184
C          153.88300834402673       -1.23970897010385       -0.17365488757052
C          154.49443424507081       -2.50415481235765       -0.38125438781482
C          153.50086109329965       -3.43548252297387       -0.51617617145455
C          152.25328685875692       -2.76400728561939       -0.39782905449499
N          152.53542810069112       -1.44143446954536       -0.19230481942606
C          150.98943600612591       -3.33891482337663       -0.48027132942247
C          149.75511901934459       -2.71492829322445       -0.38514933051241
C          148.49603096871917       -3.42903069809980       -0.49969031697576
C          147.52118517000136       -2.50567770746760       -0.36685573666725
C          148.18704660926755       -1.23183117740005       -0.16934217534155
N          149.52499527627631       -1.38872415428572       -0.18569372600147
H          146.46802853994623        2.66882954820296        0.40553258097674
H          148.41419593450820        4.49267374735067        0.66409866853281
H          150.18096324376998        0.69989797188927        0.08127548025927
H          151.04855562800870        4.40600631789256        0.64542569856746
H          153.62243939437485        4.48232740806681        0.68472870019572
H          155.57398901041284        2.63590033645077        0.43066220525010
H          155.55841365731700       -2.67052938873579       -0.42727723961200
H          153.61234866931943       -4.49450102890252       -0.68624122711979
H          151.84588817311430       -0.70613614291980       -0.07479675196673
H          150.97857660817533       -4.41200472682825       -0.64471815677363
H          148.40362283415558       -4.49142182507028       -0.66246387360679
H          146.45249666942343       -2.64460899096347       -0.40204610912391
