128
 energy: -244.084519225214 gnorm: 0.000605259210 xtb: 6.5.1 (b24c23e)
Ni          17.72710351578828       -0.06807065623608        0.04208524216959
C           14.33399927389819       -0.15926552049975        0.06278738105419
C           14.99218642245487       -0.31143077982920        1.26503222109406
C           14.31845244251815       -0.49053010475912        2.51491690762564
C           15.27376122851314       -0.49523049648386        3.47321478570923
C           16.53222265067231       -0.33046867476691        2.80590937441941
N           16.35002635030763       -0.23311027284369        1.44916884564817
C           17.74610408992260       -0.19950892909212        3.46714078019028
C           18.95314064185749       -0.03420604105723        2.80203116774785
C           20.21767331513022        0.05733108224466        3.46706644811514
C           21.16595631800165        0.09310669075896        2.50081734769108
N           19.12608036858783       -0.04052043424237        1.43623950776957
C           20.47978385719567        0.02097938198579        1.25013342277962
C           21.14124341491673       -0.03634233206475        0.02081213335935
C           20.46372495807954       -0.08943017225279       -1.19986522150938
C           21.13297038704165       -0.16831595470631       -2.45916016321352
C           20.17259285466840       -0.12259688984314       -3.41313276775033
C           18.91858422370941       -0.00694590148684       -2.73206832911131
C           17.69784977534905        0.12288902859518       -3.38161741246840
C           17.68709606263845        0.20647648628601       -4.86063262108370
C           17.02795750950555       -0.76460948616260       -5.61915083050770
C           17.02128433081646       -0.68605551269787       -6.99957305691355
C           17.67028262919497        0.36661105371799       -7.64756298228977
C           17.63302326119885        0.40897730317434       -9.12910462559162
O           18.28604210361008        1.45744738323117       -9.65270302382872
O           17.07697332244984       -0.40714516395720       -9.81908246345887
C           18.32874726688659        1.33939159317125       -6.89478707941589
C           18.33732633382099        1.25678834806503       -5.51336248749775
C           16.48678004955342        0.16847239866049       -2.70274192062112
C           15.21563448081415        0.33443990708550       -3.34536702220373
C           14.27308645387090        0.24331023448191       -2.37859533265870
C           14.96916705053466        0.03834630800953       -1.14521700791045
N           16.32670451869439        0.02443521379081       -1.34741993747839
N           19.10787466262205       -0.02106346703939       -1.36880522488859
C           17.75389613436675       -0.24521196336584        4.94969802252391
C           17.41470485591053       -1.42209574723904        5.62119927845047
C           17.42251670718083       -1.46247659752378        7.00341672650766
C           17.76418123096446       -0.32571127757264        7.73835607014417
C           17.75425634446452       -0.41774483823188        9.21816024927108
O           18.09640111617302        0.72617222961318        9.82980756073928
O           17.47091334289858       -1.41262826237774        9.83565101233215
C           18.10169073132687        0.85230358191302        7.07147194171028
C           18.09866304517872        0.88900456709780        5.68779392706537
H           13.25059493367398       -0.18511438361737        0.06940953738443
H           13.24992509026993       -0.58454985921151        2.62527977139435
H           15.14963374418665       -0.58834860745223        4.53980389577035
H           20.35263880997782        0.07423555701738        4.53613771983413
H           22.23683610536964        0.15304385132864        2.60914968880461
H           22.20106177441269       -0.24858472725252       -2.58084224009750
H           20.29217858025822       -0.17082675839121       -4.48304510181576
H           16.53480241063720       -1.58999513126894       -5.11842814965147
H           16.51545726823797       -1.43873785443011       -7.59431238881614
H           18.21504167536656        1.41224539282302      -10.62003779112777
H           18.83169057369263        2.15949089930401       -7.39338963707407
H           18.83866302839315        2.01937472113613       -4.92809326881429
H           15.07573675652760        0.50294287709588       -4.40068896125243
H           13.20084158210062        0.31001279530219       -2.47120916570809
H           17.15857687078925       -2.30785588527887        5.05116590369104
H           17.16472731379235       -2.37354021793307        7.53222041870486
H           18.06561724225872        0.58230476644356       10.78962520398316
H           18.36522366398008        1.73742270249664        7.63833896071416
H           18.35194339324291        1.80656071883226        5.16881823561278
Ni          31.16133514727929       -0.06285598901514       -0.04960724826736
C           34.55438049985476       -0.15158410023061       -0.08090656310613
C           33.89607698099363       -0.16443435244726       -1.29261533548155
C           34.56967079686368       -0.19872383965194       -2.55487877479968
C           33.61432993773058       -0.09244683552493       -3.50724658167127
C           32.35597374766292       -0.00502628315128       -2.82529245267600
N           32.53827140156370       -0.06480470165936       -1.46638645390855
C           31.14213769507212        0.20201251533183       -3.46687193582888
C           29.93521030003977        0.28984805122207       -2.78699366063858
C           28.67065156984347        0.45812240044836       -3.43682286801780
C           27.72245414055078        0.38196145394702       -2.47282906992755
N           29.76237498888132        0.12548771803413       -1.43110458460305
C           28.40870689303231        0.16526546869646       -1.23899155080185
C           27.74724350514914       -0.03420612155287       -0.02462567475427
C           28.42479593951406       -0.22855391930295        1.18165948276550
C           27.75579263091924       -0.45311459183285        2.42340566950745
C           28.71627404519658       -0.51737039737443        3.37621882617985
C           29.97010037367320       -0.32277656547430        2.71304925399240
C           31.19080246670265       -0.26756724448523        3.37323394861195
C           31.20162670680592       -0.35497929861561        4.85202542093259
C           31.86169659306142       -1.40648011539464        5.49349533719124
C           31.86830936486534       -1.48774358765090        6.87375792203736
C           31.21832515726059       -0.51749296152635        7.63882755404857
C           31.25544803608070       -0.64644553896903        9.11535821637288
O           30.60121477222080        0.33381337448893        9.75641001446811
O           31.81229976590328       -1.53622006187752        9.70657640385387
C           30.55900236451339        0.53507932742924        7.00326529375786
C           30.55047789085108        0.61242764507606        5.62153203835612
C           32.40176924544831       -0.14333545476626        2.70408846658906
C           33.67292525864977       -0.05182187468866        3.36144715333851
C           34.61543136507719       -0.03140120526989        2.39055887483966
C           33.91930690891338       -0.09370719134945        1.14184077367546
N           32.56178790048229       -0.13082334378808        1.34117875623926
N           29.78064807377213       -0.17944672477033        1.35730254090849
C           31.13432483002489        0.32754765937510       -4.94481472486682
C           31.47272058973027       -0.76443414245901       -5.74736716268571
C           31.46520035256797       -0.64533267433191       -7.12503093042381
C           31.12447983335743        0.56876541170051       -7.72418584226315
C           31.13431035984858        0.64760786336802       -9.20476444729458
O           30.79363520171204        1.85477549022250       -9.68065115896771
O           31.41747553350780       -0.26967683669335       -9.93268691265888
C           30.78771850352058        1.66238474720627       -6.92609115276150
C           30.79050719805954        1.53948135833493       -5.54738415063271
H           35.63777634253168       -0.17678326327003       -0.09054694942649
H           35.63814372995136       -0.27994503661122       -2.67544938904771
H           33.73838035033142       -0.06208281780388       -4.57747172092413
H           28.53564133822924        0.59877845496130       -4.49672976377454
H           26.65156806729078        0.45420346198696       -2.57336077546862
H           26.68779147196765       -0.54778408394400        2.53508363482736
H           28.59687080544142       -0.68912178938913        4.43337993489399
H           32.35560116205431       -2.16812574301291        4.90092420199628
H           32.37482639746537       -2.30357278265542        7.37771176411593
H           30.67215151798261        0.17724465313384       10.71206467459422
H           30.05532383390202        1.29170924789660        7.59313042217135
H           30.04843374566110        1.43700454869380        5.12813171790970
H           33.81286746053498       -0.00535457695248        4.42912200742299
H           35.68767232229023        0.02439527641834        2.49017207073681
H           31.72802708060642       -1.71015195753488       -5.28309992827583
H           31.72227866951689       -1.48966676889319       -7.75521525818297
H           30.82476505323015        1.82244656747872      -10.65064007202894
H           30.52500367567670        2.60711462657150       -7.38727722205671
H           30.53782115082631        2.39136194497011       -4.92621830425968
C           23.76882881126570       -0.03514332493828        0.00670026453542
C           22.54754758235924       -0.03779537107025        0.01140074721936
C           25.11967935687908       -0.03324877731102       -0.00571296802358
C           26.34094075677567       -0.03551119221337       -0.01542027486036
