124
 energy: -222.839027337582 gnorm: 0.000418326469 xtb: 6.5.1 (b24c23e)
Fe          15.85940638355478        0.06646891206631       -0.11753353287039
C           12.47148593552925        0.10613793303421       -0.23837727098873
C           13.12675407053154        1.31738349957483       -0.16088321816738
C           12.44982784421090        2.57838126558468       -0.11851070382371
C           13.40075185124151        3.52202607836273        0.07384391227650
C           14.66002036240232        2.83674199608067        0.12781118799938
N           14.47899696503936        1.48851677438353       -0.01940930847335
C           15.87757144658678        3.46601362050008        0.36417052531764
C           15.88481306380791        4.93197264958849        0.58219925932851
C           16.26537738396497        5.45682852062192        1.82035581357513
C           16.26251127309299        6.82284668366874        2.02811024410786
C           15.88627530979120        7.69388452685807        1.00047262393894
C           15.89083219574343        9.14791716357822        1.24734530026185
O           16.20041299879571        9.64668478360301        2.29862291951571
C           15.51266742092604        7.16978965102674       -0.23919089745128
C           15.50940375318615        5.80145431039674       -0.44489414661541
C           17.08788448135052        2.78831313256774        0.38745411907204
C           18.35720721382039        3.43515126544531        0.54156422955987
C           19.30380471712237        2.47896607648081        0.38709566835013
N           17.26130619827660        1.44331979421646        0.16150567953983
C           18.61093771700981        1.25216694729347        0.14539644875511
C           19.26835115408544        0.03802621794700       -0.08763008490400
C           18.59131558917566       -1.17282569297672       -0.27706639336139
C           19.26346644647178       -2.41378868856070       -0.50353752186832
C           18.30481885514525       -3.36888623239481       -0.56335514066760
C           17.04925515872055       -2.70603386066331       -0.37158691325907
N           17.24125602233511       -1.35415543093833       -0.21728347409354
C           15.82484768217940       -3.35976593526299       -0.35399875444276
C           15.80940558537589       -4.83554413245028       -0.47510035790310
C           15.18521609652081       -5.44506982100235       -1.56708189409588
C           15.16940483308517       -6.82332632081826       -1.68540652443197
C           15.77388017832609       -7.61990631455177       -0.71005405313238
C           15.76600088763711       -9.09119017379713       -0.81062946988138
O           16.27348498692978       -9.81999095462376        0.00245147947811
C           16.39828784339247       -7.01002287279106        0.38294488346679
C           16.41881653706320       -5.63325078363769        0.49779253601175
C           14.61036647193172       -2.68910325956129       -0.25586840916745
C           13.33387571302774       -3.34367380096905       -0.23003656162936
C           12.39500464358123       -2.36880341618495       -0.22080406924618
C           13.09891103556307       -1.12211021684605       -0.21897500301663
N           14.45331373933115       -1.33039828125561       -0.20782992659160
H           11.38878057674071        0.11975298294698       -0.29329883037143
H           11.38259638407449        2.70302025087589       -0.20962113313801
H           13.27205497581940        4.58682437856360        0.18018487213123
H           16.54775628643704        4.78256914502338        2.62086723371541
H           16.54924903446098        7.23919498775752        2.98780885338271
H           15.58113804800274        9.75948961461209        0.37321112443213
H           15.22421951231020        7.83907231493986       -1.04317345929596
H           15.22910721019156        5.39711316862412       -1.41096710937391
H           18.49540660175826        4.48849331685231        0.72285046778749
H           20.37633546804950        2.58026136037863        0.42624255704590
H           20.33129567562443       -2.52437965843765       -0.60137310239212
H           18.42609221910280       -4.42603725752770       -0.73404568291876
H           14.72607335127666       -4.82843091463573       -2.33154059005849
H           14.68673168901431       -7.28826608569365       -2.53889078270679
H           15.24757149815560       -9.48337274372559       -1.71160999019074
H           16.86307600742053       -7.63699941125833        1.13625711836348
H           16.89350214426888       -5.16322668533412        1.35160357140553
H           13.18769320282879       -4.41145616405702       -0.21632613242461
H           11.32101203218727       -2.46486362554387       -0.20843249189505
Fe          29.27441754272114       -0.04835674907339       -0.12683647042706
C           32.66250592271024       -0.07010733430542       -0.25213156444121
C           32.00750938602464       -1.28040097202490       -0.34511781785797
C           32.68484115370958       -2.53465213561213       -0.47995631185565
C           31.73395684857780       -3.49612204309983       -0.42427878472695
C           30.47435748928752       -2.82547995179583       -0.27616874330389
N           30.65512775789993       -1.46992097231085       -0.23128925434995
C           29.25660699602484       -3.48209933929250       -0.13413468768723
C           29.24943250705034       -4.96413697131504       -0.12635122726788
C           28.86528309116728       -5.65890850114036        1.02391127818907
C           28.86831194381988       -7.04055157147675        1.03645412394096
C           29.24836281242142       -7.75747329624325       -0.10280175358649
C           29.24413793417167       -9.23178582523118       -0.06382582852491
O           28.93176426856110       -9.87411722881986        0.90552186317443
C           29.62546632789736       -7.06328793424481       -1.25472215279380
C           29.62848322047914       -5.67959142495756       -1.26490671452362
C           28.04597357221901       -2.81477947575458       -0.01680730530504
C           26.77666298686963       -3.47726577564785        0.04089773124300
C           25.82993642458487       -2.50896533017272        0.02438783816238
N           27.87240255076568       -1.45134976310054       -0.04787083493573
C           26.52271977006225       -1.26005007229877       -0.03715522913341
C           25.86529370176287       -0.02498955183574       -0.09187093977830
C           26.54217275450421        1.20058166747671       -0.10344592137008
C           25.86950309102378        2.46101010924417       -0.14640133356454
C           26.82799051291705        3.41502532866642       -0.06970539177888
C           28.08402849980344        2.73184825935427        0.02095095988907
N           27.89236624331117        1.37175189005657       -0.02104032639379
C           29.30855660170168        3.37683162989174        0.12722952590446
C           29.32368006967141        4.85478553203758        0.21827129855017
C           29.94364445591523        5.61483504961959       -0.77749247004187
C           29.95918439822541        6.99584101292103       -0.69703824998584
C           29.35859501033957        7.64411261034798        0.38475996645369
C           29.36604619169751        9.11461695302814        0.49609270525668
O           28.86205013939698        9.71899292766239        1.40747669224978
C           28.73839790157777        6.88355037834927        1.38147609127850
C           28.71816385146217        5.50454542228768        1.29782327418214
C           30.52333345952499        2.69953779277486        0.12464381033686
C           31.79989026198612        3.34441323635608        0.23917519050697
C           32.73878178347103        2.37813915096232        0.10994751280089
C           32.03488555360128        1.14327686112847       -0.06146884206316
N           30.68048378922479        1.34768185552012       -0.01967743890952
H           33.74522086845252       -0.07570792183572       -0.30839870695351
H           33.75226540009049       -2.64501877620807       -0.58598582464840
H           31.86287249420185       -4.56525034768194       -0.46911503653860
H           28.58007917952761       -5.10462913891489        1.91081413338050
H           28.57880715235954       -7.58844490329199        1.92672091027226
H           29.55699601736251       -9.71367372381454       -1.01455933159299
H           29.91671937522980       -7.61212174392367       -2.14436186468128
H           29.91144273933838       -5.14272251459244       -2.16327275901176
H           26.63852525019001       -4.54573662393112        0.06867183532660
H           24.75740694463468       -2.61505413343079        0.04754988674224
H           24.80141457298582        2.58416992817191       -0.22435357101127
H           26.70626340223545        4.48569973184449       -0.08529613498404
H           30.39973393469383        5.11442011520334       -1.62425810412470
H           30.43868739326296        7.57855101686353       -1.47684777690379
H           29.88194934835467        9.63220062717708       -0.34067751321261
H           28.27646370974462        7.39583235034967        2.21858982813026
H           28.24671752887995        4.91674755188260        2.07722052363337
H           31.94614874641534        4.39977039751031        0.40208289345151
H           33.81279531662321        2.47179862350558        0.13374410601033
C           21.89343033485547        0.01387697782457       -0.11819534545555
C           20.66977613678063        0.02936527369862       -0.10794499371636
C           23.24012437259711        0.00011387526835       -0.11940287839679
C           24.46387303970057       -0.01348767740674       -0.11245923722596
