262
 energy: -483.035152845196 gnorm: 0.000617913009 xtb: 6.5.1 (b24c23e)
C           50.12460206749753       -0.06603665401608        0.00294811243822
C           50.73527480443551       -1.30281103526512       -0.15879267700695
C           50.08455056551388       -2.56155922891123       -0.29332126459707
C           51.04723395666644       -3.52046619647808       -0.43594292308398
C           52.31759656920148       -2.87693848782700       -0.40257487803010
N           52.07855258572576       -1.54395079430112       -0.22547379415735
C           53.58197040247367       -3.46928470252156       -0.49820918845391
C           54.79689295681290       -2.78413398915747       -0.41258334626725
C           56.09633375963470       -3.41375187729330       -0.56815731387148
C           57.01405562591529       -2.43534244768331       -0.42791612984627
N           54.94685490135842       -1.44796824955893       -0.20315837456059
C           56.27436586187510       -1.20864890382884       -0.19957484082340
C           56.90708732086020        0.03642829388079       -0.01732246619400
C           56.27168419691403        1.27867981423347        0.16168119620118
C           56.91614507504524        2.52719810789622        0.37064779702022
C           55.94911503678871        3.48407178556209        0.50572834145723
C           54.68270399171325        2.84921395708116        0.37403236891554
C           53.41922769952630        3.44296465605283        0.46468476714565
C           53.38363476751722        4.90948783696031        0.67378881824499
C           53.94732660373815        5.77411965358526       -0.26857638497056
C           53.90949807359517        7.14214324555667       -0.07175966594902
C           53.31313628439991        7.67210686020737        1.07406527203993
C           53.30064796246985        9.14490980093831        1.24192969737832
O           52.70354586305023        9.55150370921974        2.37252545184269
O           53.77406679954932        9.92342755138286        0.45366821186177
C           52.75171807440177        6.81332454510669        2.01963078664848
C           52.78551138684703        5.44476128700119        1.81770945264275
C           52.20363929567489        2.75628361472772        0.37278601222590
C           50.89712441161692        3.39519872926807        0.41351363889861
C           49.98621620405738        2.40997361570268        0.28444060594898
C           50.73484624125584        1.17194215344611        0.15468649127993
N           52.06670037206406        1.41998249936244        0.20495162581265
N           54.92964280096194        1.51708042602236        0.17390688403030
C           53.61525390667776       -4.93606017616811       -0.70942164056832
C           53.03281420044578       -5.49890400150531       -1.84808639500878
C           53.06310084540061       -6.86750306909086       -2.05116145544780
C           53.67364848155054       -7.69864235940313       -1.11150634178925
C           53.72918508938509       -9.17043994494367       -1.28064451537842
O           53.14882277295101       -9.60309888196862       -2.41033687314048
O           54.23995452355025       -9.92680943574681       -0.49429916537934
C           54.25428202601710       -7.14111579219677        0.02933506465362
C           54.22742311723130       -5.77304889067004        0.22751867734272
H           49.03932003857089       -0.07764708325443        0.00849869619865
H           49.01559245686860       -2.70201319534210       -0.27527750779714
H           50.89686667986120       -4.58225327132105       -0.54506047457168
H           52.80399330922876       -0.83876359861698       -0.14962614574762
H           56.26197197069794       -4.45921112742767       -0.77155296858977
H           58.08851734812931       -2.50832433262796       -0.47975109670573
H           57.98441969091949        2.66427851204552        0.41749620834074
H           56.09668355616240        4.53544778088328        0.69114889800415
H           54.39830108930862        5.36611819783556       -1.16607844487642
H           54.33900679317847        7.81870869788519       -0.80246180355648
H           52.73718987837573       10.52130307910888        2.40645350092988
H           52.29141645883157        7.21990122417811        2.91236762846905
H           52.36090795543036        4.77732139734953        2.55904662967591
H           50.72577323405559        4.45492546313138        0.51303887454841
H           48.91013730541798        2.48285368665461        0.26640129430222
H           54.20698488883823        0.81338053884244        0.06310798213251
H           52.57082415717749       -4.85274927623466       -2.58610544593221
H           52.61478487593985       -7.29512052398019       -2.94017210400911
H           53.22825313397320      -10.57013274663661       -2.44640705933871
H           54.72329186450323       -7.79653002303463        0.75498248754243
H           54.66737603066056       -5.34358091200367        1.12031222146038
C           97.21107219196183        0.07392503315849        0.04975588728600
C           96.59570437674549        1.25837621406326        0.43317362318537
C           97.24087771151429        2.45277361827055        0.86130696743320
C           96.27461320241484        3.37995971373320        1.13193517847603
C           95.00764660376107        2.78542526127763        0.86641311529760
N           95.25201247130863        1.50469753952685        0.45948857838220
C           93.74125547411310        3.36483494211499        1.00333661555885
C           92.53009390723314        2.71024869612959        0.76188672351574
C           91.23092552134914        3.35449227406710        0.84023569485223
C           90.31631106310054        2.40601389698067        0.55174296346766
N           92.38405743152063        1.40453991665609        0.40893795568210
C           91.05785691660256        1.18748109166060        0.28913353042981
C           90.42844042331393       -0.03452054414520       -0.01796301895169
C           91.06857101000416       -1.24812341385771       -0.32764422275909
C           90.43015598764403       -2.48200174157100       -0.62339487161083
C           91.40097329971998       -3.40265261837173       -0.90498311281993
C           92.66345861451801       -2.75574593452407       -0.79634861440798
C           93.92876362527122       -3.32037909278662       -0.99125920605614
C           93.96869476917770       -4.73565084672069       -1.42770882523336
C           93.37513390675380       -5.11966946051955       -2.63355242370759
C           93.42105495239586       -6.43841432531116       -3.04607042419281
C           94.05568036324959       -7.40051142315557       -2.25799325431774
C           94.07878782826167       -8.80109819387165       -2.74301457730714
O           94.71559052005802       -9.64509658050159       -1.91712794077743
O           93.58081857288450       -9.17152996340289       -3.77571223337569
C           94.64506816480545       -7.02379079995820       -1.05070961328001
C           94.60286586105556       -5.70218178574002       -0.64256081784624
C           95.14189457728000       -2.64734960405680       -0.80950786743825
C           96.44986947946997       -3.23144878277101       -1.06454004638994
C           97.35735131627635       -2.27978612810934       -0.76805466670215
C           96.60500048275246       -1.11134450078448       -0.34531398870048
N           95.27437937323184       -1.36612400673568       -0.39259050762968
N           92.41109830002402       -1.45957668503988       -0.43392365195722
C           93.69743615851095        4.77977677548794        1.44173507680411
C           94.30652496069096        5.77953313539775        0.67890583766914
C           94.26401774237722        7.10112047374564        1.08762698872417
C           93.61403066534055        7.44409806848052        2.27356780135851
C           93.54252425834791        8.84385381757351        2.75646242816642
O           94.15415281702670        9.72277815616808        1.94808390963169
O           92.99427638100190        9.18530370198683        3.77348939876477
C           93.00628303352558        6.44820211195209        3.04062118804818
C           93.04559046037770        5.12945525306492        2.62774305836018
H           98.29629265665582        0.08540214122302        0.06186853746825
H           98.30871842040008        2.57166201998129        0.95243619827888
H           96.42043653419613        4.38543172051230        1.49201494999985
H           94.52974877690798        0.83508198299295        0.21612194052226
H           91.06385814513968        4.39441339226075        1.06931921358779
H           89.24304774516162        2.49834042959077        0.50666009303479
H           89.36316168257819       -2.63598308214363       -0.61577970024947
H           91.25898067635066       -4.44110965705093       -1.15607074717493
H           92.89499199467760       -4.37205809361175       -3.25478316574646
H           92.96941599312437       -6.74103845258665       -3.98446398674733
H           94.68667043509225      -10.53495495704073       -2.30458708349603
H           95.13441219702175       -7.76794829914951       -0.43350654810143
H           95.04974167243302       -5.41261050395164        0.30177354325112
H           96.62466545510442       -4.22959963562435       -1.43252383991989
H           98.43318564880204       -2.32995548865517       -0.82847454259324
H           93.13030084012209       -0.76309816136299       -0.26855119662101
H           94.79859206335490        5.51651976623946       -0.25076412671697
H           94.73304604719358        7.87123854181985        0.48669620177312
H           94.06078977803428       10.60983893516625        2.33179237807688
H           92.50643175262569        6.72518412288556        3.96232044032148
H           92.58404067662300        4.35611574293038        3.23110754468665
C           59.53678334289314        0.06926730322331       -0.00602339484651
C           58.31547236004248        0.05427945401163       -0.01345010750122
C           60.88766264235012        0.08120250088216        0.00425813510334
C           62.10911393068995        0.08598151176977        0.01790569031098
C           72.99283244108682        0.06446710375817        0.07710615029329
C           71.77028704977235        0.07133869213906        0.06967298915091
C           74.34124297846201        0.06125211024282        0.08306144404580
C           75.56371997632561        0.05416051251317        0.09184351687502
C           86.44758417250311       -0.05451853986013        0.00776565475611
C           85.22634117084644       -0.03658265389562        0.02336900049765
C           87.79858542887456       -0.05889960300391       -0.00859400661448
C           89.01999080954172       -0.05428704939327       -0.01726257820402
C           63.51665668594069        0.08950729053398        0.03014296527989
C           64.14543295829537        1.04694713451384       -0.78727551106081
C           63.49761527731223        1.98044379326625       -1.63775726980075
C           64.46279737584794        2.72580008797337       -2.25740765087987
C           65.72913824443806        2.27424939299901       -1.79511052146870
N           65.48669847301339        1.25435067696859       -0.91481276621879
C           66.99054384157492        2.74882221213775       -2.17561308791684
C           68.21393931111768        2.24542574445689       -1.73000989769635
C           69.50260258919513        2.80397034599450       -2.09884746312689
C           70.43577841506290        2.05698548642602       -1.47354282516971
N           68.38524874190705        1.19379284129167       -0.88239336469223
C           69.71557579913382        1.05112885921047       -0.71765781209565
C           70.36572868763837        0.07605939458341        0.06531779612208
C           69.73568409830901       -0.90327783477319        0.85730214937288
C           70.38323961282603       -1.89937396338023        1.63315968746600
C           69.41760810597840       -2.63685889474042        2.26178489085732
C           68.15149793739026       -2.10580335424522        1.89311535667972
C           66.89053718829233       -2.56103743723846        2.29702552632847
C           66.87449970791181       -3.68373802967825        3.26564612175035
C           66.28123637592252       -4.90326172767456        2.92882137443339
C           66.26966437947365       -5.94744135547328        3.83518454199016
C           66.84682666368907       -5.79095051198671        5.09679467759653
C           66.80673178123287       -6.93814225812714        6.03534478222626
O           67.38732855639292       -6.68431443393833        7.21788700494596
O           66.30638649739508       -8.00487899672685        5.78461344698590
C           67.43901026713191       -4.57488213361186        5.43867376938509
C           67.45408060565116       -3.53287974044770        4.52811712983515
C           65.66653073021779       -2.04359102564199        1.86842785659472
C           64.37700158830944       -2.50896822104592        2.34757607850476
C           63.44407452378254       -1.77318028274509        1.70916685536776
C           64.16491976905715       -0.85212121976197        0.85226279076798
N           65.49638328519387       -1.03185915137707        0.97436336333179
N           68.39466378462801       -1.06631138644141        1.03580052958480
C           67.00960199870107        3.88180865720764       -3.13215300824297
C           66.42808780760357        5.10623321484559       -2.79230492926001
C           66.45094094257156        6.16163000349700       -3.68534200010104
C           67.05054497500427        6.01137420089894       -4.93716997810405
C           67.04777033037830        7.17143096407459       -5.86064502683057
O           67.65136022799635        6.92558259119674       -7.03308622145600
O           66.55609898661939        8.24147827668350       -5.60637146175961
C           67.62974546314719        4.79002864558828       -5.28267281270992
C           67.61016490195104        3.73663458720370       -4.38538686237700
H           62.42937705678455        2.05981350952526       -1.75878660855004
H           64.31277511332651        3.51221172047772       -2.97885798574736
H           66.20830872058885        0.72500804070096       -0.43694675444381
H           69.65121677712628        3.66006227385030       -2.73669899821023
H           71.50870550185034        2.16110028515976       -1.49799730279507
H           71.45146170844964       -2.03121538076801        1.69301565321343
H           69.56733323168407       -3.48087687622313        2.91496689862127
H           65.84374789671534       -5.03102337435702        1.94529064180175
H           65.81539350660192       -6.89817325664237        3.57859527226554
H           67.31851161631992       -7.47928971969523        7.77117224823068
H           67.88503156175463       -4.44745346567523        6.41794444498708
H           67.90230218777990       -2.58360672232032        4.79935327728539
H           64.22749330484517       -3.28339374814475        3.08220038427188
H           62.37078460492340       -1.82189505161659        1.79939300578567
H           67.67349408373462       -0.50476372213379        0.59549701978663
H           65.97458105211740        5.23008489038812       -1.81541270066835
H           66.00742566477425        7.11651272770267       -3.42531721387835
H           67.60767562926574        7.72917351964889       -7.57639012122101
H           68.09315621338244        4.66774240317735       -6.25449696811863
H           68.04950713935983        2.78394616231466       -4.65869702112541
C           76.96822743011249        0.05235177372757        0.09468349891139
C           77.59589702995906        0.98938559275963       -0.74874600279972
C           76.94702660933407        1.90921629385880       -1.61257579724918
C           77.91120265011781        2.65365961627199       -2.23530116516194
C           79.17766780365815        2.21454187017039       -1.76173154300069
N           78.93632361327019        1.20023440780741       -0.87431447239507
C           80.43794539114862        2.69925570121061       -2.13248984898784
C           81.66246450374395        2.20086476197702       -1.68266342226598
C           82.94957296897209        2.77156290316165       -2.03876588042507
C           83.88505510794003        2.01351797052945       -1.43061932460193
N           81.83607703437976        1.13516985029325       -0.85471485856491
C           83.16803165665969        0.98881403532284       -0.69720908592212
C           83.81900095408028       -0.01642299812861        0.04329205007515
C           83.19112287226405       -1.01029196387118        0.81666047293425
C           83.83771000570836       -2.03282609107887        1.55863543229993
C           82.87390141440281       -2.75785733673057        2.20424424180279
C           81.61009904760675       -2.19333804811745        1.87979869635604
C           80.35159846321334       -2.61960531062925        2.32209525171555
C           80.33843901562302       -3.74288461063585        3.28996763932375
C           79.70433088115493       -4.94645798239986        2.97047516562126
C           79.69451231516371       -5.99169951665536        3.87550553699678
C           80.31374885588944       -5.85187562070603        5.11904402551123
C           80.27401408142747       -6.99963884230466        6.05666275127432
O           80.89589769385606       -6.76284853557677        7.22164112866522
O           79.74128265729429       -8.05375108290141        5.81921255349572
C           80.94637020738197       -4.65154968412958        5.44385682450468
C           80.96018719345383       -3.60881072282630        4.53410251255213
C           79.12756479408635       -2.07546100771266        1.92953461746629
C           77.84289852512116       -2.50957917500041        2.44897604497622
C           76.90697889478677       -1.76711017604967        1.82230945139145
C           77.62203858296064       -0.87320431453624        0.93274643915780
N           78.95211372586752       -1.07130638914536        1.02703300039580
N           81.85161719422980       -1.14920657940094        1.02840119445971
C           80.45367661161784        3.83275434134285       -3.08800122353031
C           79.84956269819358        5.04881944459809       -2.75741471426682
C           79.86363806441695        6.10166013301763       -3.65366392735254
C           80.47719987240053        5.95729185281201       -4.89942279331367
C           80.46157246353418        7.11300772967758       -5.82800155838459
O           81.08186202668990        6.87373567608938       -6.99320790336291
O           79.94614826311216        8.17430769430452       -5.58420392828490
C           81.08080519953809        4.74495444047032       -5.23493491058319
C           81.06985643042061        3.69425635853096       -4.33450994256675
H           75.87898937312085        1.98222872232097       -1.73921543323637
H           77.75986560831561        3.43173787035700       -2.96543713524517
H           79.65813289366275        0.67934186538061       -0.38760436525158
H           83.09523489707541        3.64206094451111       -2.65754592614338
H           84.95769640459129        2.12040750483249       -1.45355613161956
H           84.90411091037041       -2.18806763553859        1.58702116778570
H           83.02264072495228       -3.61401427984438        2.84173845941359
H           79.23338590727434       -5.06104110257277        2.00087034308807
H           79.20886748439619       -6.93028463262872        3.63200517261124
H           80.82441519668932       -7.55729880258804        7.77533744154426
H           81.42461496923355       -4.53692173517759        6.40941224959450
H           81.44051469792292       -2.67166611334793        4.79224527124822
H           77.69880134304272       -3.26969934247378        3.19948417876622
H           75.83552276476053       -1.79510945880585        1.93982163010709
H           81.13143233024610       -0.56490439670924        0.61709556207971
H           79.38436761305903        5.16833555737997       -1.78548692796041
H           79.40145945213860        7.04971343983445       -3.40123641334417
H           81.02748550414681        7.67376128447124       -7.54076057644354
H           81.55543336528827        4.62724887512415       -6.20188463557686
H           81.52714222251070        2.74795773790346       -4.60045979768058
