128
 energy: -210.940295700570 gnorm: 0.000512207677 xtb: 6.5.1 (b24c23e)
C           10.77550722397952       -0.12792827032346        0.06608195405273
C           11.38835096330229       -0.99185547813255        0.96473260981050
C           10.74083159227541       -1.89646718363492        1.85174826394184
C           11.70610299077346       -2.54998844603680        2.56563084796653
C           12.97415917319604       -2.05827199211758        2.14473761517856
N           12.73188730044287       -1.12868319378006        1.17326855713452
C           14.23858455544070       -2.44869339493978        2.60229880624395
C           14.27448198877694       -3.45735293802303        3.68779310229073
C           14.91257512823789       -4.68548115182405        3.49717464250487
C           14.94687531586911       -5.63137585017454        4.50614428801891
C           14.35355506034879       -5.36055021286595        5.74183610226456
N           14.35389545340390       -6.31852849611832        6.74113641300789
C           13.70857380639384       -4.13691114912750        5.93882037272209
C           13.66973020034782       -3.20071951970623        4.92058345969308
C           15.45072951343288       -1.95702298439003        2.11125305074224
C           16.74954694621825       -2.32790417685150        2.64257589082901
C           17.66664518686937       -1.65450407496228        1.91708189706195
N           15.60057378402480       -1.05943786279810        1.09769086370324
C           16.92652167169489       -0.86532707337377        0.95210034413165
C           17.56020175072076       -0.02893464498211        0.00965684554963
C           16.92078712609652        0.80661957360880       -0.92640078191169
C           17.56165733340668        1.62697828356943       -1.89154419652813
C           16.59196746501181        2.28871089335110       -2.59353479275628
C           15.32802580765844        1.89860324560542       -2.07143174566202
N           15.57890088274346        0.99475396175581       -1.07237978866637
C           14.06466189452032        2.32295040956781       -2.49921527653913
C           14.02794689237941        3.34397498069594       -3.57175660679897
C           13.38297463506969        3.08347438239998       -4.78359178079335
C           13.34562217338410        4.03536741981366       -5.78680728061912
C           13.94347545962119        5.28326192529574       -5.59249786203854
N           13.94019347500917        6.22451160560300       -6.60720521772258
C           14.59580490937247        5.54990895828113       -4.38598290574502
C           14.63693186921220        4.58867112209264       -3.39177622618519
C           12.85076256839064        1.85295503022000       -1.98443254273692
C           11.54378920563697        2.33923745736874       -2.39741925046247
C           10.63387410619717        1.64583551722892       -1.68322657996067
C           11.38387973024248        0.74792985279052       -0.82365252474490
N           12.71514197771011        0.90549529860276       -1.02639842576077
H            9.69011320904779       -0.14265697240768        0.06925122249263
H            9.67241980052145       -2.02609861060135        1.92045806402315
H           11.55826165444519       -3.31368309675562        3.31189233851405
H           13.45461062929298       -0.62081013361088        0.67428039150630
H           15.36866640403642       -4.90614762230842        2.53835138333657
H           15.43574013856413       -6.58551855595384        4.34232262387912
H           14.22095785375330       -5.96037880077024        7.67348141743861
H           15.08755754396608       -7.00557384329354        6.67099260794147
H           13.24321425257682       -3.92199977121580        6.89463369823825
H           13.18419794480010       -2.24548956819808        5.08870484880554
H           16.91571212640357       -3.00006584277216        3.46883604705858
H           18.74063817988077       -1.66606981150441        2.01276868099619
H           18.62909699381554        1.69121854780394       -2.02864191059630
H           16.73670341872091        2.97712300078075       -3.41011429367580
H           14.85929311071928        0.52840452895981       -0.52990750747317
H           12.92506075781082        2.11394285789705       -4.94645524827729
H           12.85106106421441        3.81701726354397       -6.72707056059843
H           13.20414408859635        6.11579287617275       -7.28651056237099
H           14.07934985707018        7.17586475280258       -6.30628384957961
H           15.06504740450245        6.51527871798713       -4.23042725609352
H           15.12728113311932        4.81161853017311       -2.45038536814288
H           11.36970573783774        3.11626722744376       -3.12437671684915
H            9.55779738210078        1.72100029568932       -1.70568385276207
C           33.52110727627837        0.02894363147764       -0.14309051622896
C           32.90815841740318        0.70733614650934       -1.18884022661392
C           33.55520101421633        1.36240381867494       -2.27355170824604
C           32.58970799952834        1.90992302964741       -3.07137868882835
C           31.32202078249458        1.61530146972198       -2.49427437506648
N           31.56466150346564        0.88188365075690       -1.36742627573243
C           30.05760792941025        1.97367688773452       -2.97728247099721
C           30.02175248669969        2.79936353764543       -4.20779035413930
C           29.38392148647914        2.33228557369042       -5.35961925592361
C           29.34994177822815        3.09755407323788       -6.51163903818978
C           29.94309100610157        4.36249195485833       -6.53104813947307
N           29.94300929712677        5.11561207258221       -7.69258989552970
C           30.58767358104316        4.83478307642214       -5.38494455607565
C           30.62644951851431        4.05816029041077       -4.24033364632569
C           28.84547871820245        1.61018449409827       -2.38512004956812
C           27.54693127455504        2.04428296158493       -2.86692810054657
C           26.62958153189720        1.49294365628625       -2.04512065668591
N           28.69529146801765        0.82895673046970       -1.27943783172161
C           27.36932550478167        0.73307687285053       -1.05659876519849
C           26.73558061799535        0.00754871995831       -0.02645123694904
C           27.37520392081752       -0.71216460115151        1.00125721031486
C           26.73439249080283       -1.46198007730968        2.02222753601683
C           27.70421192154018       -1.99405852459520        2.82678924110962
C           28.96818234553222       -1.57741422730076        2.32565758723057
N           28.71714393552159       -0.81250296942872        1.21664998479071
C           30.23162883526065       -1.89870663991017        2.83509615097331
C           30.26848401225411       -2.70885217751989        4.07469350901775
C           30.90956288788368       -3.95015755093316        4.09715864787946
C           30.94722828756186       -4.70877034658188        5.25345739383599
C           30.35364854546072       -4.23185298006512        6.42504125338393
N           30.35732758199437       -5.00396184132678        7.57372064607801
C           29.70512625213350       -2.99433063095560        6.40973513379901
C           29.66361481613058       -2.24660848515668        5.24640496966571
C           31.44556689935454       -1.50804575054766        2.25791235369825
C           32.75264189778602       -1.80188638182905        2.82399693801154
C           33.66266866793415       -1.26785753696242        1.98407374528336
C           32.91267488458735       -0.63499084108545        0.91420143097456
N           31.58129565758816       -0.79294321122326        1.11595575190062
H           34.60647096122462        0.02601509918975       -0.15980022364103
H           34.62343954029510        1.39729129839098       -2.41735147556958
H           32.73707884665421        2.46143259361630       -3.98577418194371
H           30.84228675920940        0.51378940733351       -0.75757671657417
H           28.92776697835907        1.34843270106300       -5.35467221827883
H           28.86143102943573        2.71931059177514       -7.40299428470058
H           30.07567544841621        6.10524300983580       -7.55758947425711
H           29.20949439179915        4.88981267554412       -8.34540974329020
H           31.05285636870768        5.81450156354150       -5.39469297942852
H           31.11195088839963        4.44060898093329       -3.34898969352231
H           27.38125138049073        2.69526256380331       -3.71007770704735
H           25.55567342617161        1.58469541257328       -2.07763873347978
H           25.66690975430529       -1.57932873677644        2.11737113015374
H           27.55956623296884       -2.63006085560820        3.68482048405287
H           29.43663911109456       -0.39272029119008        0.63724619520905
H           31.36417424197170       -4.33214569900897        3.18962062226153
H           31.43876851654159       -5.67558659503753        5.25514109338413
H           31.09143013468541       -5.69232120992684        7.62167813445896
H           30.22197916346396       -4.49262987147560        8.43115757407430
H           29.23916067510333       -2.62032449732300        7.31489384732298
H           29.17623969025469       -1.27768413833330        5.24884010405612
H           32.92667278812208       -2.33200950935867        3.74661966558537
H           34.73884541076821       -1.27520603596749        2.06080222753388
C           22.76224626744768       -0.01167745570795       -0.00739782689110
C           21.53355002473955       -0.01179511508515       -0.01070540169430
C           20.18961889404223       -0.01297711642683       -0.00850459328917
C           18.96533524344564       -0.01693793823144       -0.00275166553788
C           24.10618449375705       -0.00838661443198       -0.00805893557983
C           25.33047450243271       -0.00254588591470       -0.01205325815132
