160
 energy: -292.428896219606 gnorm: 0.000249765182 xtb: 6.5.1 (b24c23e)
Fe          20.40490300175344       -0.02319283031408       -0.02201936103097
C           16.99266384910127       -0.03523746645667       -0.03704923561247
C           17.64734336026412       -0.89480512346887       -0.89532082284615
C           16.97606620619782       -1.79083744524876       -1.79115271153640
C           17.93997739423603       -2.46584840923766       -2.46029193806893
C           19.19715137745249       -1.98015177216993       -1.97149255100997
N           19.00567673305229       -1.02002739442607       -1.01598898981599
C           20.42120601739830       -2.43690755829474       -2.41957585387140
C           21.63678563379193       -1.97927799023087       -1.96003936947571
C           22.89815688502250       -2.46326310976261       -2.43534604756598
C           23.85422677856837       -1.78248068161976       -1.75937376508872
N           21.82225595074076       -1.01193868835688       -1.00148943056329
C           23.17251393840572       -0.88649581190095       -0.87490915326171
C           23.83670994574421       -0.00864312148857       -0.00923483316853
C           23.15876613445539        0.86298015258697        0.85194640850755
C           23.82631034804298        1.76391828051800        1.74214284914683
C           22.85952428503348        2.43553933429820        2.41201618363726
C           21.60584333734696        1.94127057473270        1.92700332036835
N           21.80657872841684        0.97651240711381        0.96895640393493
C           20.38304683843484        2.38842856172726        2.37763220235383
C           19.16625684289716        1.92296650740152        1.91886347115227
C           17.90141714365974        2.39923599670597        2.39705488316347
C           16.94823699889414        1.71866084101914        1.71825454326371
C           17.63369520887590        0.82833893884548        0.82748211850573
N           18.98999564827923        0.96264098734761        0.96062511572439
H           15.90854219496741       -0.03892273708455       -0.04195691806873
H           15.90446602626649       -1.87565442533537       -1.87956245852585
H           17.83266532297175       -3.22585237316358       -3.21807989113824
H           20.42584900203890       -3.20630551879367       -3.18355078958647
H           23.01575309539935       -3.22536412775053       -3.18927264926674
H           24.92631482429661       -1.86548026003216       -1.83898026016468
H           24.89705373290483        1.85614480476879        1.82942157084582
H           22.96505665296089        3.19787136223480        3.16749254320106
H           20.37550653795751        3.15685033257706        3.14256724564901
H           17.78203948177978        3.15747559924867        3.15480547425193
H           15.87532522918233        1.79607868968556        1.79702295802545
Fe          68.50567128106900        0.00434433517649       -0.00788132772053
C           71.91692300587684        0.03151753517310       -0.05532547146946
C           71.25866472630005        1.24402266290298       -0.07903735457367
C           71.92573646390713        2.51251495608209       -0.12327570084262
C           70.95995313753687        3.46076586739104       -0.09851960132340
C           69.70546696782100        2.76917483474776       -0.04113083613009
N           69.90052442459583        1.41490078870762       -0.03784492441566
C           68.48153259603612        3.40579946595657        0.02052417296630
C           67.26858782360176        2.75347724847449        0.06570144652834
C           66.00640574180731        3.42765822948535        0.12448604170070
C           65.05248881668744        2.46612073362666        0.11874154788541
N           67.08616784411257        1.39173932814350        0.03529218138154
C           65.73609305138901        1.20965070319907        0.05816429055681
C           65.07500662567749       -0.02280213231161        0.00008976798584
C           65.75540159501075       -1.24505184622304       -0.04840033288842
C           65.09146829921939       -2.51284604808822       -0.08902698101503
C           66.06017171563524       -3.45941460557247       -0.07581495891422
C           67.31179151317477       -2.76473073165722       -0.03185709892321
N           67.10818229759484       -1.40573229101385       -0.02266782052257
C           68.53547222241787       -3.39712543135117        0.00768991788752
C           69.75015364415285       -2.74055108012852        0.03009043116624
C           71.01674317266726       -3.41164869530530        0.05708752605591
C           71.96754429497169       -2.44834821299462        0.03383294047307
C           71.27919115301063       -1.19109420852136       -0.00436139908973
N           69.92335650076014       -1.38356052481829        0.00185573630134
H           73.00085751726428        0.04010869278166       -0.07339280390241
H           72.99627066243366        2.63748070024886       -0.16446707390426
H           71.06440378657376        4.53416472434001       -0.11569645328982
H           68.47419930676784        4.48998105564549        0.03114009855692
H           65.88667518435641        4.49881210279794        0.16122037217929
H           63.98052710994550        2.57813419630200        0.15004932464303
H           64.02136694651620       -2.64197627491364       -0.11816824483119
H           65.95711201736391       -4.53278684579685       -0.09333966498251
H           68.54525107332451       -4.48131508925409        0.01473145141429
H           71.13884878842168       -4.48292108187279        0.08616772587418
H           73.04071884047409       -2.55610596182109        0.04038884662901
C           29.03380800022784        0.00572224218030        0.00038615322904
C           27.80344355838441        0.00434022149275        0.00014789576706
C           26.46266357727399        0.00163773516570       -0.00194897185834
C           25.23704158130189       -0.00295151626680       -0.00429664061522
C           30.37433222467062        0.00600856313565        0.00103951927463
C           31.60027061777200        0.00480483085441        0.00111433533891
C           45.07099985396832       -0.02385113649565       -0.03013726762312
C           43.84008298966958       -0.01927391234565       -0.02798621101787
C           42.50062263463201       -0.01503956896638       -0.02496626528233
C           41.27427185431851       -0.01126495671420       -0.02061393422670
C           46.41047608751246       -0.02983780374768       -0.03238023443472
C           47.63679922162638       -0.03508047625455       -0.03415244086027
C           61.10672109163179       -0.04692252909801       -0.01860619813071
C           59.87691398141160       -0.05140867586316       -0.02435323660135
C           58.53543874173005       -0.05312367305114       -0.02888627142741
C           57.31002144959435       -0.05475946892186       -0.03125152947835
C           62.44845042304664       -0.04077143130666       -0.01178084169855
C           63.67351318143773       -0.03322987530847       -0.00539550370261
Fe          36.43803030477194       -0.00798438069768       -0.00351682463940
C           32.99951621836104        0.00105449452918        0.00044206431012
C           33.67516451670185        0.90929821630208        0.82622782959675
C           33.00505212331055        1.84523847948039        1.67638242834756
C           33.97086087001335        2.54984123699225        2.31427869613239
C           35.22395021631118        2.03894045536325        1.84815927019867
N           35.02687766602477        1.03196155204133        0.93609763349203
C           36.44748968966913        2.51520387943076        2.27174092743112
C           37.66709502738927        2.04202185370438        1.83595712087458
C           38.92431328517661        2.55579114461776        2.28826486276129
C           39.88461888104638        1.84835458896294        1.64549417475722
N           37.85694342242655        1.03123619446539        0.92572193056241
C           39.20711203559534        0.90765347497474        0.80615826426254
C           39.87608687992027       -0.00998401516022       -0.01535121850280
C           39.20034725517415       -0.92837947726080       -0.83046921289488
C           39.87103616856123       -1.87286809978913       -1.67103104322625
C           38.90556012711115       -2.58341999964016       -2.30249593447357
C           37.65207962990970       -2.06687309471542       -1.84308551265522
N           37.84927722420314       -1.05191618265174       -0.93906951669171
C           36.42901149253836       -2.53938464505382       -2.26971890256780
C           35.20900151156886       -2.05590634872514       -1.84419810150198
C           33.95220876239105       -2.56150119859924       -2.30603488740715
C           32.99160283042279       -1.84768327690665       -1.67055406862647
C           33.66855925854168       -0.91237139479446       -0.82511394579661
N           35.01933970132007       -1.04361032987075       -0.93644747740486
H           31.93417623222400        1.93717168122613        1.76128666542233
H           33.86409609102017        3.34458459300600        3.03530026742241
H           36.45006436774709        3.32017058713032        2.99844892647429
H           39.03721264952355        3.35394025917422        3.00458681519065
H           40.95619150331780        1.94075803953549        1.72075105376011
H           40.94195208845204       -1.96587087082178       -1.75440123489244
H           39.01265640083692       -3.38507874833648       -3.01577980374137
H           36.42568235886822       -3.34787673601095       -2.99249575428042
H           33.83961853510169       -3.35894693025501       -3.02317785905410
H           31.92009033200786       -1.93342225786012       -1.75380728602915
Fe          52.47224777220820       -0.04662631997351       -0.03144641882447
C           49.03503472863056       -0.03906284645752       -0.03314675680979
C           49.70920783785422        0.89062163943342        0.77039675668887
C           49.03743617766940        1.84581406335152        1.59800970244947
C           50.00165428512210        2.58625383824928        2.19614233876808
C           51.25568599808190        2.07797681789247        1.72884498263473
N           51.05989436429915        1.03161242759654        0.86085111394444
C           52.47699189283031        2.60232879689980        2.09524585972041
C           53.69691459564947        2.12980699686935        1.65661817840520
C           54.95227153139579        2.69685297785432        2.04531842270470
C           55.91395624684787        1.95515611667544        1.44436967094351
N           53.88824185084718        1.05800401852728        0.82071512799483
C           55.23935762925132        0.93988794088044        0.69457018169858
C           55.90964021828639       -0.05264107314334       -0.03183441848824
C           55.23584290727545       -1.04294760057833       -0.75781622949522
C           55.90680348893794       -2.06082094110672       -1.50729542436677
C           54.94239885541314       -2.80042528279094       -2.10648313382426
C           53.68903097056661       -2.22918037200564       -1.71740510309453
N           53.88426467758765       -1.15684166529871       -0.88309656123031
C           52.46733128508998       -2.69820901461808       -2.15488588536850
C           51.24794285985038       -2.16853913710910       -1.78968992625550
C           49.99209564576692       -2.67184401763998       -2.25756537786001
C           49.03060332475349       -1.92573766314385       -1.66207851563557
C           49.70581125738653       -0.97248131113683       -0.83506094197182
N           51.05595981091096       -1.11983416457947       -0.92368158919028
H           47.96661383079196        1.92613360876841        1.69475860362870
H           49.89336521805545        3.40516805254516        2.88937093565093
H           52.47923141380087        3.44726112438127        2.77504916657440
H           55.06329801225337        3.54973766179060        2.69583029596303
H           56.98494239561119        2.06803468399588        1.49609255615067
H           56.97743843557135       -2.17677673392405       -1.55976342539597
H           55.05034065875770       -3.65439250270765       -2.75610254019275
H           52.46647470768901       -3.54406757680327       -2.83354302237208
H           49.88082169402437       -3.49147479457247       -2.94947727121513
H           47.95951385812199       -2.00117968558411       -1.75992108912343
