428
 energy: -693.909029996369 gnorm: 0.000315629574 xtb: 6.5.1 (b24c23e)
C           82.47718322961515        0.57924083110559        0.02020020453646
C           83.08488353244981        0.64552765754941       -1.22725890944408
C           82.42982869841757        0.76474553559116       -2.48447866345752
C           83.38573780742480        0.74145207752741       -3.46136837652219
C           84.65698791180938        0.62322847515348       -2.83149742741365
N           84.42428419225185        0.56686471523130       -1.48622345267207
C           85.91420239982953        0.54780051483703       -3.44423522567498
C           85.94199586756174        0.62838902470361       -4.92316720648555
C           86.47430915638603       -0.41726962829366       -5.68001150579467
C           86.48509841939979       -0.36714910325114       -7.06331147131564
C           85.96048241233548        0.74421876030290       -7.72945159101343
N           85.98920950348466        0.86784581274556       -9.11087959661550
C           86.03069879437301       -0.33059307802503       -9.93854435763990
C           85.44438730840879        1.80469218567300       -6.97465154844367
C           85.42993265490750        1.74249859842713       -5.59393489666625
C           87.12508156118305        0.40086182494333       -2.76232719703686
C           88.42454642061219        0.43193276834900       -3.40831643095183
C           89.34259898087087        0.29709642117866       -2.42855567026010
N           87.27650130219212        0.25549389325902       -1.41657420341296
C           88.60302939970336        0.18352987730521       -1.18688902761727
C           89.23708733912370        0.02827680478794        0.06333561858323
C           88.59870107414898       -0.08421183854479        1.31388693231945
C           89.24148998375969       -0.23820858766897        2.57010169751137
C           88.27357822143401       -0.29645209606334        3.53496509974166
C           87.00853330920435       -0.18312938663593        2.89563809500173
N           87.25759398378004       -0.05549400662876        1.55402942987190
C           85.74933210024825       -0.15393173767586        3.50659368546086
C           85.71397155156211       -0.35240221229891        4.97353865090684
C           85.17223995763338        0.61930574807636        5.81712687879778
C           85.13895679395229        0.43875060684377        7.18936307959561
C           85.64968294906275       -0.73258857211601        7.75630047224251
N           85.58925235704717       -0.99219422442032        9.11721952822035
C           85.50856569571926        0.11445611403368       10.06098843541168
C           86.18412894087041       -1.71518525012159        6.91365094746447
C           86.22118435171031       -1.52280610786483        5.54578741106605
C           84.54112746527468        0.04926637912214        2.82951486795417
C           83.23322914667931        0.03246819084458        3.46541066609998
C           82.32975341092218        0.25315801309299        2.48887574090633
C           83.08287806935772        0.38684327756780        1.25490172547110
N           84.41056333331920        0.25785881831038        1.49785129602338
H           81.39466629598304        0.66004898532393        0.01674782269570
H           81.36196110063506        0.84427145388403       -2.61265942157132
H           83.22709574832220        0.78917457529400       -4.52650915109578
H           85.14954773245151        0.45975482775867       -0.78489340750280
H           86.86635013077715       -1.29355824694537       -5.17521045287442
H           86.90249797181347       -1.19754017060541       -7.61946663286459
H           85.32397573885127        1.54985549206638       -9.45519060448460
H           85.24070689116760       -1.03832620025246       -9.66223520226398
H           85.89604081948222       -0.02763249022720      -10.97684731432451
H           87.00074592000173       -0.81955387362338       -9.84073272982224
H           85.05314577903164        2.68008641358698       -7.48238449368396
H           85.03623492804017        2.57660006893344       -5.02323742472458
H           88.59143381676161        0.56467138023274       -4.46500193690033
H           90.41752804412513        0.27898065066510       -2.51175056321776
H           90.30931472467299       -0.29110203292040        2.70909960575611
H           88.42146128567971       -0.39219230608044        4.59830663006668
H           86.53750782538476        0.06057266275567        0.84852849572702
H           84.79070311852196        1.54130111257938        5.39199057740179
H           84.71361566260595        1.21438224499413        7.81433001720078
H           86.25031582929419       -1.70152809516662        9.41017767189206
H           84.54029178758519        0.60915521377051        9.97524522666610
H           86.30493017966467        0.84816058110662        9.89105673769887
H           85.60348658941996       -0.29381991487827       11.06718589895349
H           86.56919498322348       -2.63417342864263        7.34300174620165
H           86.62754677688528       -2.29813658523069        4.90534641196198
H           83.05253232831154       -0.14319827842059        4.51367423522156
H           81.25488190942944        0.30980218787572        2.56325055296633
C          169.25543543542378        0.60361141234004       -0.05470290156957
C          168.64826857280130        0.72582876963502        1.18880168574363
C          169.30274854341513        0.92204063482361        2.43662188389486
C          168.34864000062393        0.93331883707536        3.41552554187598
C          167.07886625011645        0.76046731459633        2.79547207429220
N          167.31076903374137        0.63791690194051        1.45446023735102
C          165.82382095955276        0.69586558553915        3.41382800086963
C          165.79513539295959        0.85325881534696        4.88652956080855
C          165.27881942054228       -0.15935490061601        5.69748576809298
C          165.26352381590883       -0.03542515520062        7.07607309911507
C          165.76714975942352        1.11899894274066        7.68256666985511
N          165.73047938292356        1.31721219830356        9.05494972433409
C          165.70065411412830        0.16593577353873        9.94737783764912
C          166.26867722827600        2.14547471108224        6.87288627011165
C          166.28778626245460        2.00968339878447        5.49751666269495
C          164.61467820253944        0.49502938164455        2.74264267091437
C          163.31552575628419        0.54041913058603        3.38849371399401
C          162.39845485002780        0.34405311363730        2.41830525344406
N          164.46398244654267        0.27924440162270        1.40628966078337
C          163.13832087469083        0.17801131862246        1.18274539376643
C          162.50507702519391       -0.04795891434622       -0.05702926679021
C          163.14370023908970       -0.21844741768090       -1.30087152165341
C          162.50168824137745       -0.44534762271996       -2.54635754872653
C          163.46933984021038       -0.54148669221252       -3.50842760577394
C          164.73348549631913       -0.37925497068902       -2.87788660009803
N          164.48413336943869       -0.18595671051649       -1.54421280117675
C          165.99162179584266       -0.36427557954729       -3.49161407496308
C          166.02810040694203       -0.63542428090883       -4.94671110155628
C          166.55861573923900        0.29932150099345       -5.83793118210542
C          166.59196801317984        0.05223597188314       -7.19971290643156
C          166.09220598244102       -1.15040891425595       -7.70781147471247
N          166.15282673651689       -1.47536992709750       -9.05460044196939
C          166.22371575068149       -0.41530750622482      -10.05112649366971
C          165.56918600966611       -2.09607778804537       -6.81708440775342
C          165.53231482469752       -1.83759689404461       -5.46015204549223
C          167.19739646442497       -0.10874900758687       -2.82789845470210
C          168.50487110482015       -0.13983329468280       -3.46410324875776
C          169.40566038145280        0.14714651432807       -2.50239829464277
C          168.65166082563488        0.33525921381682       -1.27611635956085
N          167.32593862520014        0.17253113312707       -1.50948850208101
H          170.33643907413096        0.70266195135731       -0.05786935667177
H          170.36923224143126        1.02665232980932        2.55810367659248
H          168.50775337297767        1.03943616204859        4.47637551625675
H          166.58649145993147        0.48222899863046        0.76125608256162
H          164.90260412807481       -1.06779939286081        5.23966697243038
H          164.85851969755200       -0.84173986467839        7.67515557720193
H          166.38328247993707        2.02725665867518        9.36449162973992
H          166.50295027195492       -0.54406535962569        9.71586110832467
H          165.82327759126429        0.52787660697862       10.96816578228574
H          164.73859055631667       -0.34220374697010        9.87057485940022
H          166.64410518141358        3.05317861440399        7.33365094553606
H          166.66914073384518        2.81847556282271        4.88364049085028
H          163.14777942500882        0.72384657900595        4.43741388918345
H          161.32397191904784        0.31522198811506        2.50413548987049
H          161.43448988664142       -0.51874322431347       -2.68074043194719
H          163.32146211554314       -0.69381400447624       -4.56513496737826
H          165.20325543883297       -0.02343413993615       -0.84694945469150
H          166.93084616637640        1.24502879059358       -5.45917096930955
H          167.00843369191696        0.80077240587948       -7.86253435934328
H          165.49692230529035       -2.20316520415123       -9.31165517577566
H          167.18733909161688        0.09188615128823       -9.98945208591051
H          165.42051129677628        0.31841640467722       -9.91722461637781
H          166.13317080265921       -0.87294148374677      -11.03627627514902
H          165.19276366585936       -3.03873134690273       -7.20031117208336
H          165.13509477070750       -2.58498539411818       -4.78187214520537
H          168.68751966949907       -0.36928665176904       -4.50158175073419
H          170.47945699405591        0.21630969687134       -2.58158677676312
C           94.43823290054358       -0.06339438399270        0.09584856012310
C           93.20929473527636       -0.05409789530462        0.09480788952179
C           91.86571958317042       -0.03556540169011        0.08867247075572
C           90.64149448671522       -0.01199032416668        0.07769694539433
C           95.78179185654344       -0.06524722292938        0.09408575894810
C           97.00643564353730       -0.06064837176543        0.08596393162608
C          110.46460731120210       -0.03739398200605        0.01448582194432
C          109.23541416738196       -0.04389423733086        0.02163694991740
C          107.89229132687048       -0.04888687150913        0.02839100415660
C          106.66749909627656       -0.05046660984238        0.03902442784147
C          111.80769798026373       -0.02734565686999        0.00950007960287
C          113.03245132254912       -0.01499584026868        0.00184483509703
C          126.48881409108716        0.00116324279939        0.00060335114792
C          125.25958851143533        0.00025957350170        0.00312914523125
C          123.91650446392988       -0.00076549599534        0.00495920298267
C          122.69165388526515        0.00166879355805        0.00978931350012
C          127.83186997223808        0.00510184692704       -0.00081482807965
C          129.05670864513081        0.00938978522201       -0.00568540438615
C          142.51059510526221        0.01365692704443       -0.01881180248863
C          141.28144982101736        0.02116491017693       -0.01085624791966
C          139.93840975164824        0.02485941431828       -0.00554806444199
C          138.71359119929411        0.02529945878424        0.00026213948049
C          143.85358733332276        0.00324358977916       -0.02625199068033
C          145.07832938647545       -0.00929104260727       -0.03688656284023
C          158.53352110086166       -0.15262420632102       -0.08340613932232
C          157.30460038125230       -0.16312225813010       -0.08457575545230
C          155.96109221090384       -0.16679822189646       -0.08284873052764
C          154.73645398284384       -0.16210972382164       -0.07580859076172
C          159.87698999864548       -0.13003146411005       -0.07845960283025
C          161.10108919674772       -0.10038831850200       -0.06808617704421
C           98.41040489419949       -0.04234400445892        0.07898929418595
C           99.04120484272651        0.01561758257860        1.33762798531344
C           98.39442685145958        0.01872934365816        2.59962802257815
C           99.36127200393706        0.06036786181985        3.56762613188521
C          100.62684672738045        0.09390982034438        2.92276520209461
N          100.38241857021141        0.05966107783975        1.57547140672575
C          101.88810697468908        0.12136050447375        3.53343567797771
C          101.90341647052570        0.19091218675837        5.01341165690628
C          102.52128514989543       -0.80946480539574        5.76943812971370
C          102.52523014279915       -0.75155931165218        7.15001930323676
C          101.91508795737349        0.31650594879925        7.81948351019253
N          101.99238673236341        0.36051148416189        9.20335620023671
C          101.00349344678949        1.12035938342531        9.95641707847082
C          101.31054544972464        1.32835281130088        7.06793909277410
C          101.30035433868258        1.25582518975799        5.68542752413531
C          103.11072930807271        0.08650263853284        2.85965078658185
C          104.40015223680336        0.18491098726859        3.51907449832747
C          105.33357675724459        0.12513722783393        2.54638454786315
N          103.28232364115685       -0.01230583375729        1.51183997112263
C          104.61285257813533        0.00329651921458        1.29526529851782
C          105.26378927328405       -0.06046646181230        0.04593879315753
C          104.63318030769872       -0.11287654457498       -1.21312836573653
C          105.28062378406423       -0.11075166476011       -2.47497815658426
C          104.31410713375089       -0.13386772139309       -3.44368934531417
C          103.04783746110391       -0.16315277554104       -2.79971701954541
N          103.29192438593333       -0.14444251199486       -1.45181972760172
C          101.78672610076882       -0.17609381334733       -3.41029757033523
C          101.76817099090539       -0.22018360237010       -4.89118773861683
C          101.15507688236431        0.79648729598974       -5.62608760824944
C          101.13643531887115        0.76854601797247       -7.00988391713355
C          101.72165878753476       -0.29802544205071       -7.69860138380731
N          101.77077407920795       -0.35442241686897       -9.08324625502428
C          100.76998321816245        0.35508868245875       -9.86913558759454
C          102.34181286444957       -1.31795683785056       -6.96628918521451
C          102.36699785246461       -1.27546982712551       -5.58517529322654
C          100.56396813486063       -0.14973063037655       -2.73559003965929
C           99.27502314581443       -0.24381669694453       -3.39653939360285
C           98.34121920473687       -0.20267021248211       -2.42318711360600
C           99.06119933655452       -0.09304334571327       -1.17064909133739
N          100.39200826980834       -0.06914790641535       -1.38700640984483
H           97.32624215625162       -0.01628163735678        2.74107015717835
H           99.21120792016127        0.05326350712973        4.63485986431959
H          101.10271060380001        0.05606742453938        0.86095665024687
H          102.98118757902211       -1.65240848346562        5.26545361396783
H          103.00114426275888       -1.53915624351575        7.72471992119881
H          102.17591982086728       -0.54702122327138        9.61406016385628
H           99.98150866149884        0.84389012724406        9.67280151501548
H          101.15286630739169        0.91069012097645       11.01556069572051
H          101.14570803594501        2.18874977381933        9.78886450963257
H          100.84938810322735        2.17797788698982        7.55639648822809
H          100.83725422597739        2.05314547922267        5.11405828396639
H          104.55042696904965        0.30370133169388        4.57983216800965
H          106.40693185208791        0.16980369992100        2.63955022590764
H          106.34911296271481       -0.08327455823434       -2.61560912733817
H          104.46486563759150       -0.11681530058096       -4.51066148286285
H          102.57127623820089       -0.13933399749893       -0.73770162058079
H          100.70572761750185        1.63406130265781       -5.10370429265047
H          100.66749966726702        1.58247282240674       -7.54902237793147
H          101.94093053823393       -1.29050238988601       -9.43083999769061
H          100.91896350763166        1.43193088637123       -9.78006289017457
H          100.89835840459935        0.07063262038744      -10.91348920294358
H           99.75285673155192        0.10391688355330       -9.54734108930104
H          102.80221621920805       -2.14791222505621       -7.49195991035485
H          102.83348216344086       -2.08322400735939       -5.03172318283297
H           99.12548389074996       -0.34801003816710       -4.45897913981113
H           97.26810522316964       -0.25105928773740       -2.51715813616071
C          114.43599832317088        0.00815999623756        0.00186050474825
C          115.05934587332968        0.07429437950476        1.26403583336220
C          114.40479588854558        0.08236579721206        2.52203056464366
C          115.36568439793179        0.12551194360416        3.49582571124377
C          116.63527351212238        0.15532945367759        2.85872790344078
N          116.39902515122333        0.11800978480036        1.50993306242604
C          117.89290629064413        0.18070589195565        3.47685796107415
C          117.90070547202197        0.25062974130227        4.95670415601081
C          118.51689840174058       -0.74861957593461        5.71574215712980
C          118.51594801556313       -0.68979637752885        7.09622704759592
C          117.90230716117846        0.37810370517371        7.76286399684058
N          117.97562304310462        0.42364232546861        9.14663250528401
C          116.98719959731687        1.18703880782139        9.89661096036540
C          117.29857451784613        1.38833123438801        7.00841663341372
C          117.29345323576422        1.31493646954402        5.62595207641954
C          119.11937902877618        0.14324140708026        2.80989381667433
C          120.40522970543735        0.24093499615704        3.47633490835450
C          121.34395535347657        0.17986221364196        2.50883357163511
N          119.29825572930135        0.04336090325489        1.46317995788651
C          120.63004053920598        0.05786741394771        1.25391686941302
C          121.28798714161029       -0.00707984409459        0.00843556659457
C          120.66493924018586       -0.06135409332061       -1.25437633361936
C          121.31990470030654       -0.06093795829972       -2.51226558145791
C          120.35919994028670       -0.08849538931438       -3.48671530293852
C          119.08927832184786       -0.11879818027301       -2.85020908599832
N          119.32518755453512       -0.09566825865955       -1.50099547732934
C          117.83166836604298       -0.13733940498040       -3.46814775262914
C          117.82205963941101       -0.18854033436275       -4.94883068958493
C          117.21003642781841        0.82245063591582       -5.69237768285926
C          117.20026013239432        0.78795917513583       -7.07612714178586
C          117.79357810701937       -0.27973920321296       -7.75612528643402
N          117.85215719267008       -0.34247934830912       -9.14007098384146
C          116.85753992237213        0.36382033861398       -9.93650686372581
C          118.41240890215016       -1.29418314164574       -7.01507138141142
C          118.42877421675209       -1.24507584696967       -5.63407256698774
C          116.60521958044642       -0.11079902613965       -2.80048738550126
C          115.32009900674647       -0.21139684600403       -3.46780988233605
C          114.38098793038982       -0.16733738949265       -2.49965619495137
C          115.09401522016421       -0.04921244928323       -1.24391001019249
N          116.42569000251856       -0.02359084976518       -1.45311203612933
H          113.33575512791269        0.04915492355496        2.65712923821615
H          115.20887811024829        0.12148174996052        4.56208803179076
H          117.12378956836361        0.11078256797933        0.79997822474742
H          118.97951553738415       -1.59142447488489        5.21401792225521
H          118.99096673531115       -1.47631819702144        7.67311587316711
H          118.15806863871478       -0.48300278800105        9.55962098495750
H          115.96510559843333        0.91341806759695        9.61073829153033
H          117.13337301233324        0.97782364050880       10.95628785800005
H          117.13309421285186        2.25486577009619        9.72845718792329
H          116.83428764071577        2.23750946124198        7.49463377294295
H          116.83150507295078        2.11140524097972        5.05249204537455
H          120.54998531838363        0.36046711502384        4.53776334076446
H          122.41681796289724        0.22373356223818        2.60788536329021
H          122.38914935856808       -0.03162403748324       -2.64661694385705
H          120.51632842029963       -0.07384887427324       -4.55280174622535
H          118.60021789527880       -0.09048678285241       -0.79126009164737
H          116.75453488345460        1.66092494021241       -5.17681044818881
H          116.73186616936204        1.59772307180933       -7.62194708283496
H          118.02535202666232       -1.27989888351309       -9.48247938693421
H          117.00471607130288        1.44103298973909       -9.84896034740043
H          116.99534266789057        0.07678220788193      -10.97895119975903
H          115.83785236564536        0.11248684061759       -9.62301439192964
H          118.87897956723791       -2.12498980211352       -7.53391431490467
H          118.89461126869216       -2.04855036290567       -5.07389028971020
H          115.17654558979903       -0.32153409937560       -4.53048283682942
H          113.30847475714680       -0.21861637605149       -2.59902316925787
C          130.46030632830008        0.02489774417101       -0.00533221767095
C          131.08350764123432        0.08698105523310        1.25710433764214
C          130.42837243666710        0.09177257659021        2.51485942860450
C          131.38885714985912        0.12897690277163        3.48929038334921
C          132.65879819288159        0.15942905312292        2.85291846622262
N          132.42309893024066        0.12726891430531        1.50381501462488
C          133.91639285073444        0.18316240435850        3.47106080504093
C          133.92592220083284        0.24666055007560        4.95107225597774
C          134.54876203540206       -0.75307578344576        5.70413779941476
C          134.55228016456246       -0.69983526610564        7.08480139552983
C          133.93636378590165        0.36276244658207        7.75778130947087
N          134.01495725994121        0.40363548062245        9.14138183526604
C          133.02420790583577        1.15720962497701        9.89820677375183
C          133.32525644369420        1.37308850083950        7.00943710654292
C          133.31598438703537        1.30540908739462        5.62668986558428
C          135.14267973959130        0.15091776966291        2.80316134810533
C          136.42861086376928        0.25205402533309        3.46891573411327
C          137.36687539630506        0.19711686360466        2.50058455708805
N          135.32093504543482        0.05484925969885        1.45617644227449
C          136.65257900824079        0.07469271406155        1.24599084959702
C          137.30995599661352        0.01285221325300        0.00015597316739
C          136.68685384658548       -0.04495400937651       -1.26245532037998
C          137.34196977944538       -0.04477456871290       -2.52022195709253
C          136.38150513192716       -0.07841098392729       -3.49472083497966
C          135.11168758096667       -0.11188388683712       -2.85825809375324
N          135.34726722835242       -0.08461077666425       -1.50912772694031
C          133.85413571600512       -0.13549306767804       -3.47638081212541
C          133.84589909606925       -0.19296144669559       -4.95677249568386
C          133.23204944744344        0.81280377536056       -5.70586704724416
C          133.22616849363831        0.77288840897998       -7.08951782470029
C          133.82563687342278       -0.29498312120525       -7.76380754686347
N          133.88916305864612       -0.36223783270490       -9.14734233844495
C          132.89295762920310        0.33535449504472       -9.94945375369536
C          134.44586971762948       -1.30447020735744       -7.01719173806650
C          134.45810785231498       -1.25003726916847       -5.63638189686894
C          132.62793710061129       -0.10706678434560       -2.80854360780184
C          131.34234375084384       -0.20846526229775       -3.47474641342407
C          130.40381816801587       -0.15808594172164       -2.50632394872635
C          131.11774435801431       -0.03678545469024       -1.25131277670357
N          132.44925008794914       -0.01461253200235       -1.46129996674005
H          129.35919985991899        0.05989476365554        2.64930000433555
H          131.23147548301785        0.12068964671274        4.55544447727238
H          133.14835909201270        0.12134888383776        0.79435362655617
H          135.01339199906911       -1.59179433714553        5.19744619035225
H          135.03287103694672       -1.48646722177022        7.65688991655039
H          134.20541841331649       -0.50324744758856        9.55016431616364
H          132.00297294457539        0.87871422457718        9.61397593127931
H          133.17487035107186        0.94351170239100       10.95638516250024
H          133.16301278548909        2.22676932314396        9.73504645954951
H          132.85889467337600        2.21820522022642        7.50073619645668
H          132.84904961483261        2.10245679566665        5.05810995950890
H          136.57374697136495        0.37010604785501        4.53045088136136
H          138.43961772149919        0.24514256640306        2.59895099910830
H          138.41110107258226       -0.01167738151971       -2.65453468580857
H          136.53874995375429       -0.06548723694883       -4.56080311934602
H          134.62207961618256       -0.08062403145891       -0.79960332475625
H          132.77242855664758        1.65182339607740       -5.19487514769102
H          132.75644345477198        1.57885802709957       -7.63980940564696
H          134.06877126047715       -1.29989127309142       -9.48576474175275
H          133.03447034709822        1.41369445708670       -9.86661325721581
H          133.03471035526769        0.04411914108802      -10.99020518500290
H          131.87382920474610        0.08032285664467       -9.63717610882561
H          134.91709082460520       -2.13543213428557       -7.53156019610907
H          134.92536732641108       -2.04961448296896       -5.07181937686473
H          131.19806416588131       -0.32303908522366       -4.53685796106147
H          129.33116600586089       -0.20780453146260       -2.60500761307320
C          146.48193412263092       -0.01724425705263       -0.04295187814549
C          147.11231756456067        0.03641233982454        1.21619979283304
C          146.46401248877623        0.05657810687447        2.47736252996321
C          147.43018439765171        0.07929714602109        3.44655746317198
C          148.69712220055450        0.08479804907077        2.80339258843800
N          148.45369685026097        0.05285729603756        1.45567133209946
C          149.95793715862672        0.08840708868158        3.41505900751287
C          149.97575500904847        0.16053385854504        4.89461218933932
C          150.58293256950651       -0.84603736185242        5.65133889710621
C          150.59492884935185       -0.78328857534153        7.03153413552199
C          150.00414300657869        0.29618728158598        7.70031298479774
N          150.09274979717171        0.34567645635099        9.08281558727210
C          149.12852076393446        1.13126398140136        9.84106751280357
C          149.40809848422992        1.31266672429446        6.94811950812548
C          149.38968083641259        1.23532697596293        5.56598054007162
C          151.18035424136443        0.03064211168222        2.74159857635974
C          152.47078154305595        0.11291739846841        3.40129240704155
C          153.40368092651468        0.03702776848921        2.42927132644652
N          151.35086300883216       -0.07586594994816        1.39454246566485
C          152.68193513430819       -0.07976320478935        1.17837814171175
C          153.33236640462684       -0.15897665524075       -0.06998208476540
C          152.70210248750357       -0.21357149917400       -1.32901023592927
C          153.35048251504560       -0.23052298702178       -2.59014375150456
C          152.38445720223999       -0.24828340221042       -3.55957276043650
C          151.11751747347614       -0.25429683392026       -2.91651041802579
N          151.36061646919066       -0.22862709446610       -1.56873712541409
C          149.85663606998611       -0.25188467635199       -3.52828387901594
C          149.83949528078256       -0.30711114961551       -5.00877654217917
C          149.24537713777747        0.71458333415874       -5.75216146501257
C          149.23227896187163        0.67904469400893       -7.13587090436913
C          149.80401135818215       -0.40027214323445       -7.81597647986826
N          149.86127226488398       -0.46436383138206       -9.19983596508651
C          148.88621476916848        0.26726496047044       -9.99737983871934
C          150.40313729154599       -1.42658708784094       -7.07501561674929
C          150.42318797080313       -1.37646711752443       -5.69408910038037
C          148.63441926154238       -0.19709823670716       -2.85497190120189
C          147.34418885790802       -0.27311833723267       -3.51568505633000
C          146.41097574043727       -0.20259335895398       -2.54341984033162
C          147.13256547950104       -0.09379617580324       -1.29164659266176
N          148.46332483395426       -0.09896332299969       -1.50717048110816
H          145.39515710080420        0.04447653802454        2.61745582901801
H          147.27849652419627        0.07687910689280        4.51357009061011
H          149.17468656786980        0.03178191226009        0.74217256096376
H          151.02855324957457       -1.69703431513686        5.14806212681021
H          151.06315408858265       -1.57515764762639        7.60663637199945
H          150.26485925154915       -0.56180242518761        9.49822437781214
H          148.09783466124784        0.87563952046584        9.56965601229424
H          149.28423587991188        0.92469007015962       10.89992554685867
H          149.29239997840386        2.19531493380527        9.66543809555200
H          148.96069038932652        2.17004409846263        7.43576586730308
H          148.93473630036115        2.03703888951517        4.99423522018516
H          152.62250845953560        0.23389967389443        4.46156186064140
H          154.47747195082385        0.06707208903606        2.52290413640963
H          154.41936793155853       -0.21882513209649       -2.72999493576433
H          152.53630469233784       -0.24184178349985       -4.62650413315958
H          150.63957579182150       -0.20694474745428       -0.85531378659437
H          148.80727537254617        1.56225129786802       -5.23656440517163
H          148.77854513869246        1.49724240164966       -7.68147671401595
H          150.01287538339588       -1.40519930919353       -9.54292716633331
H          149.05954883073360        1.34042008831904       -9.90752858523592
H          149.01967887212083       -0.02121715552164      -11.03999255200816
H          147.85980921371879        0.04052204476545       -9.68702699930944
H          150.85216187298263       -2.26694233223288       -7.59396559750828
H          150.87430766357303       -2.18833648266345       -5.13396299874198
H          147.19318404126710       -0.38627488107195       -4.57701401807162
H          145.33712181350390       -0.23062339174375       -2.63750925065376
