250
 energy: -500.171827803454 gnorm: 0.000657072115 xtb: 6.5.1 (b24c23e)
Cu          48.42777304780613       -0.00302389799175       -0.06292410286411
C           45.02319047082601       -0.03296243221255       -0.14441840490724
C           45.66232665538639       -1.24976354611032       -0.32565998217199
C           44.99063237656261       -2.50594827122599       -0.49924631667695
C           45.95186175425115       -3.45132079332081       -0.64016086037179
C           47.22059094593384       -2.77786916103437       -0.56706403104657
N           47.01406567090232       -1.44366791138073       -0.36758750330000
C           48.46835748154172       -3.39988179153345       -0.65838423129283
C           48.48673774364435       -4.86022583640552       -0.91107353671252
C           49.06246728264247       -5.73061931367463        0.01956890300045
C           49.07951951869669       -7.09433572936987       -0.20956483287164
C           48.52036944226767       -7.59247523816882       -1.38295226781950
N           48.53758564788716       -9.02354483768843       -1.62994343699971
O           48.04371603480428       -9.41828785254942       -2.65496550199310
O           49.04411241493335       -9.72741188418720       -0.79434986900086
C           47.94487610501132       -6.74314398432433       -2.32369113357547
C           47.92835748645646       -5.38152102111887       -2.08219949872836
C           49.70019516981706       -2.75349894529606       -0.53168105497985
C           50.97988068897922       -3.38342182275279       -0.69526481142195
C           51.92157516629877       -2.42320636134226       -0.51508272607803
N           49.88191918851157       -1.42218896112916       -0.26759498026652
C           51.22499649083043       -1.20070366808580       -0.24893857519735
C           51.85597883453323        0.03149968549255       -0.00575726702645
C           51.19293373121605        1.24911503636264        0.22460548704233
C           51.85559097716567        2.48250902047124        0.52451443275087
C           50.88921658609033        3.42166775041490        0.68417811016145
C           49.62854416119281        2.76848731589902        0.47104671081515
N           49.84572243479233        1.44345400390416        0.20186907391878
C           48.38021260498695        3.38977916346339        0.55473029017531
C           48.35787635796130        4.84632136362350        0.82782701756288
C           47.73510241808884        5.33740902027091        1.97950070486369
C           47.71170373805570        6.69491322360377        2.24223586964341
C           48.31240796840783        7.57078845080296        1.34247220933557
N           48.28849605294928        8.99761287426498        1.61207897348245
O           47.73592397094958        9.36591974084572        2.61678420484686
O           48.82168879452979        9.72484326106152        0.81386786697858
C           48.93522308969619        7.10303835712397        0.18880206524911
C           48.95710572255284        5.74314983361978       -0.06192606645804
C           47.14956092619524        2.74610439048248        0.40062166136475
C           45.86720706387284        3.39723333342243        0.41607307385172
C           44.93075258095114        2.43715570889902        0.21902253753456
C           45.63181244144451        1.19381700584264        0.07111594761105
N           46.97634604636746        1.41036216012125        0.18122608708029
H           43.93858825181233       -0.04204136067631       -0.17177921566725
H           43.91991975325821       -2.63476440344830       -0.49976531117220
H           45.82046670000461       -4.51350303926663       -0.76925098453398
H           49.48370669686046       -5.33128745195225        0.93480920557419
H           49.51791369730807       -7.77693979110369        0.50845726594209
H           47.52025482803393       -7.15566946003190       -3.23100882657249
H           47.49441109671694       -4.70867168982247       -2.81263205218401
H           51.13490165907854       -4.42301985505628       -0.93403929970501
H           52.99401819690078       -2.52288902039822       -0.56372829668640
H           52.92369454940322        2.60268506188484        0.60937671374365
H           51.01555657835271        4.46149127654763        0.93840150920578
H           47.28181431787604        4.64411478287487        2.67840711154547
H           47.23676672291177        7.08400794262045        3.13483544766098
H           49.39174397093868        7.80596207946510       -0.49762601287791
H           49.42749948932740        5.36760487453862       -0.96317289825490
H           45.71122005440178        4.45591792676868        0.54652048561160
H           43.85931524888075        2.54795410880979        0.16646898724136
Cu          88.84062023292213        0.06046256084560       -0.02373288835911
C           92.24364652400034        0.11996579630194       -0.13379924383927
C           91.60796702532018        1.31573565570667        0.16293560442905
C           92.28305385976856        2.54553193983579        0.46490061001262
C           91.32436332761181        3.47557120161613        0.69624786793437
C           90.05368964061908        2.82431249179013        0.52371818776307
N           90.25669894039056        1.51164682195471        0.21015438988497
C           88.80748984441256        3.43737100445829        0.67629593733820
C           88.79199675913000        4.88726999527513        0.98324461390158
C           88.22118725066750        5.35049723362954        2.17270712735609
C           88.20697560751941        6.70174794441070        2.46656814490872
C           88.76390470601413        7.59939774123560        1.56008732411838
N           88.74997660993436        9.01977561516680        1.86273969857502
O           89.24390668237577        9.76631043885771        1.05713939117301
O           88.24578098887351        9.36355712201803        2.90099716223823
C           89.33421194959575        7.15953673519414        0.36894612361144
C           89.34797633668565        5.80559186792115        0.08735245764395
C           87.57430696242277        2.79138560218839        0.56084314861693
C           86.29580340323426        3.43909070060943        0.64450293235771
C           85.35209716697081        2.48038557615073        0.46647754385165
N           87.38992878279065        1.45589404821219        0.32110079038728
C           86.04626739946957        1.24404225067251        0.26637180151630
C           85.41317591341590        0.00615574271860        0.06038757252175
C           86.07428773085094       -1.21313032467430       -0.16726129339013
C           85.41083572174141       -2.47224480404302       -0.32435805193459
C           86.37486611720506       -3.40272476009199       -0.53967504458105
C           87.63462764283223       -2.71418184855863       -0.52598334087305
N           87.41982259365165       -1.38340552402166       -0.28515116678236
C           88.88032419562202       -3.31957684603788       -0.70863550447443
C           88.89733300993922       -4.77088365575732       -1.00821126017243
C           89.54406451946434       -5.66320485676141       -0.14755577510634
C           89.56326310669597       -7.01814890646985       -0.42391546572502
C           88.93385248842979       -7.48540825850409       -1.57417100819823
N           88.95436356350062       -8.90673128505325       -1.87157780360117
O           89.53073726232468       -9.62959058054193       -1.09983320950178
O           88.39484933429777       -9.27496063209243       -2.87246249731294
C           88.28578386196951       -6.61399984885548       -2.44498714647182
C           88.26858348616707       -5.26159831240424       -2.15680265724948
C           90.11164497712119       -2.66285194546348       -0.63678334721392
C           91.39050476870838       -3.27014526792153       -0.89047752305930
C           92.32872285972958       -2.30526540102029       -0.72830138605629
C           91.63200492874796       -1.09828689845009       -0.38617080721081
N           90.28832735589484       -1.34195917875509       -0.34256218380156
H           93.32783171904070        0.13912456737937       -0.17077589607781
H           93.35421664400928        2.66480380802805        0.50235038780554
H           91.45881392182197        4.50904246482977        0.97196506087931
H           87.80163129796257        4.64031808453439        2.87570552173643
H           87.77260618815812        7.06937491166882        3.38844923259206
H           89.75697487740067        7.87904184518550       -0.32191660585261
H           89.77781428630917        5.45167613944657       -0.84245602807984
H           86.14290576370915        4.49434003050796        0.80230952760475
H           84.27973772728832        2.59205612935684        0.46321493879693
H           84.34398231784732       -2.61736342040861       -0.26716442227694
H           86.24788953693719       -4.46380693028113       -0.68045342141159
H           90.01967334820161       -5.28861519742310        0.75136060553525
H           90.05709207329164       -7.71764499239681        0.23981882450772
H           87.80668240219717       -7.00243402102450       -3.33564285744878
H           87.77879715482237       -4.57130696309119       -2.83369480125022
H           91.54315883396674       -4.30001379331839       -1.17016018351655
H           93.39853220786533       -2.38688149452790       -0.83724473661112
C           54.48430868579158        0.05261098385551        0.01184191596081
C           53.26263948553199        0.04552689119891        0.00793443509858
C           55.83444756340918        0.05795864938212        0.01067285018317
C           57.05622978233030        0.05757415775446        0.00718509829494
C           67.96052456990509        0.03228389928968       -0.00049606416688
C           66.73844046146625        0.03853749343607       -0.00199001029893
C           69.31011330756220        0.02395924269210       -0.00138146764402
C           70.53218154128895        0.02078472421702       -0.00522296153716
C           81.43514174193142       -0.02514185331015        0.08093887525960
C           80.21331614877361       -0.02412034825666        0.07290074156306
C           82.78508646827538       -0.01918832540041        0.08243804592226
C           84.00682443671485       -0.01178893756916        0.07896031298776
Cu          61.89739573087898        0.04765686388172       -0.00954931228246
C           58.46250272970622        0.05509893889558        0.00140168195892
C           59.10762113407414       -1.19244427391017        0.06898450200545
C           58.42693079558997       -2.44668873682934        0.18955427855290
C           59.38014489733009       -3.41243029592726        0.21391763868956
C           60.64990213768597       -2.75227245301958        0.09998503495777
N           60.45143011486395       -1.40021621924514        0.02226155224911
C           61.89024270350819       -3.39526494546775        0.09693026547161
C           61.88603567285667       -4.87711235824104        0.13531787327081
C           62.48140857781002       -5.55884168197913        1.20098499653164
C           62.47806076619325       -6.94123742400940        1.24102673165342
C           61.87854547509847       -7.64893143176145        0.20313483287252
N           61.87457394547577       -9.10093688208588        0.23873477179042
O           61.34664838153490       -9.67940361121355       -0.67600691529830
O           62.39963535891108       -9.63665449932001        1.18079743474706
C           61.28230233161990       -6.98972959022468       -0.86806690877340
C           61.28633272944387       -5.60707419002922       -0.89550345819210
C           63.13343490816663       -2.75909229427992        0.05983488309131
C           64.40095106496561       -3.42981740304827       -0.00748506590737
C           65.35821030172073       -2.46813579219543       -0.03429089999578
N           63.33749661597994       -1.40539485825207        0.05742237433398
C           64.68227354332035       -1.20617360426197        0.00525595379270
C           65.33268815108981        0.04086120291445       -0.00406703738334
C           64.68706464321498        1.29017271617784       -0.01945566242680
C           65.36764916003706        2.54976168402211        0.01361111373157
C           64.41436452393515        3.51481335119924       -0.03021184992746
C           63.14467569579357        2.84826348315375       -0.09784379129826
N           63.34327368562683        1.49403058845650       -0.07995429640258
C           61.90440697633929        3.48946709291973       -0.14771105432721
C           61.90792508942094        4.96991792884067       -0.21975794225550
C           62.51105603221287        5.62092214172885       -1.30033136293412
C           62.51164083376816        7.00162662514153       -1.37831126576562
C           61.90819848972925        7.73895450119617       -0.36358243937937
N           61.90586289377031        9.18938996690638       -0.44036631997466
O           62.43788162759459        9.69781879719250       -1.39365124825540
O           61.37132039370421        9.79398469498372        0.45343547847170
C           61.30616461127531        7.11077815870995        0.72290724031179
C           61.30667771289124        5.72937669189199        0.78856139686708
C           60.66108191188033        2.85224069802665       -0.13813420915195
C           59.39329194075737        3.51612435977775       -0.25303365926925
C           58.43618978554063        2.55503934756906       -0.20735075383314
C           59.11252676249657        1.29946460230780       -0.07684689401936
N           60.45742327594363        1.50205004214983       -0.04164083216916
H           57.35708449325379       -2.56329747955200        0.25495672150674
H           59.23928990964531       -4.47618137537399        0.31620615947039
H           62.93420159915108       -4.99610513614854        2.00897372338621
H           62.93142864463769       -7.47823042598533        2.06550932732036
H           60.82587329802595       -7.56392094734435       -1.66535845925184
H           60.83591433661879       -5.08186997864193       -1.72969192644453
H           64.53802746586172       -4.49827595000017       -0.04534189229222
H           66.42791421428070       -2.59271153541509       -0.08574919529978
H           66.43747862078348        2.67071506398509        0.07090072683920
H           64.55515014418368        4.58312893652640       -0.00244194040256
H           62.96626688041880        5.03504406322865       -2.09034296809569
H           62.97041726823262        7.51462769899183       -2.21500559717255
H           60.84739759720885        7.70779212728991        1.50187456415683
H           60.85178907097197        5.22860394811749        1.63523313566985
H           59.25572100089274        4.57885216135052       -0.36945011074387
H           57.36639835597742        2.67533592045770       -0.26670728277903
Cu          75.37279416062457       -0.00295146563068        0.01476386882605
C           71.93791629287286        0.01377917241541       -0.00471656433751
C           72.57964934372839       -1.23512974722897        0.07531626313694
C           71.89516516964707       -2.48727284834642        0.19588009672036
C           72.84558731562301       -3.45575048213049        0.22340330450260
C           74.11751283192434       -2.79935125341181        0.11253053602506
N           73.92296578531815       -1.44664317027829        0.03421183852240
C           75.35591561072941       -3.44602701812142        0.11000366755572
C           75.34775010175757       -4.92796480192820        0.14206270044324
C           75.94163172059450       -5.61588241438783        1.20462660558547
C           75.93553535264742       -6.99843729211282        1.23820691321914
C           75.33467003033859       -7.70009171400763        0.19696643099295
N           75.32870623183280       -9.15229277560561        0.22536000902005
O           74.79945949627272       -9.72541966815983       -0.69193469646126
O           75.85434820071957       -9.69347291079823        1.16399477666034
C           74.73968664904315       -7.03470953604676       -0.87107151046816
C           74.74646362643615       -5.65195706863149       -0.89205852782075
C           76.60103889841855       -2.81312784407887        0.07925469876031
C           77.86715827895748       -3.48664109372342        0.01272243352008
C           78.82705868578816       -2.52728636828013       -0.00046914118769
N           76.80843241922565       -1.46011542364946        0.08801184604690
C           78.15413643225578       -1.26403403993071        0.04642683694006
C           78.80734639428034       -0.01890554226508        0.05845419173962
C           78.16524045909269        1.23216671712434        0.04795729019627
C           78.84816900314895        2.48993147660591        0.09770297079763
C           77.89806325244456        3.45752428129008        0.04219889398621
C           76.62808260473076        2.79437655422458       -0.04956123335390
N           76.82300096515101        1.43972599217677       -0.03258599380287
C           75.39046687412680        3.43877897689053       -0.12231916253237
C           75.40061792477579        4.91901378152697       -0.19785563055853
C           76.02747024718525        5.56383139037066       -1.26867497978288
C           76.03739271538655        6.94421589600783       -1.35031058168449
C           75.41935766191084        7.68764104194993       -0.34884678812148
N           75.42826984511021        9.13786947362344       -0.42876652302365
O           75.98260906673019        9.64053970804489       -1.37238959942925
O           74.88056401176249        9.74805485773372        0.45311920107718
C           74.79304607923048        7.06571400494300        0.72743723621019
C           74.78436781052135        5.68443570847822        0.79671815894270
C           74.14573173739966        2.80458862521386       -0.13331481954266
C           72.88151088463927        3.47105997387858       -0.26966974149696
C           71.92132144185771        2.51258682674499       -0.23321717680803
C           72.59240912401098        1.25591892268103       -0.08736165613544
N           73.93715697577576        1.45511584832330       -0.03523990683944
H           70.82479587806066       -2.60083601053314        0.25802044638790
H           72.70148333374932       -4.51904876857472        0.32593622860139
H           76.39556219165705       -5.05775868661995        2.01518359452321
H           76.38776414956867       -7.54016422596967        2.06022070811443
H           74.28224817384327       -7.60423013816143       -1.67112916069988
H           74.29726989293596       -5.12207224675105       -1.72393382610345
H           78.00174683682613       -4.55510250924317       -0.03335483872347
H           79.89675463554683       -2.65405726433640       -0.04677173932434
H           79.91721683445707        2.60821199197728        0.17269368390971
H           78.04098298967592        4.52535726973149        0.07651966073441
H           76.49451964230686        4.97312006533062       -2.04810102292507
H           76.51499198107290        7.45232831624363       -2.17939963539472
H           74.32314905835666        7.66745660480176        1.49607627826889
H           74.31079103669551        5.18868008841189        1.63606148607717
H           72.74849476647201        4.53360647482341       -0.39265486965030
H           70.85279583991152        2.63534514524851       -0.30814918005296
