197
 energy: -368.050572606136 gnorm: 0.000882186356 xtb: 6.5.1 (b24c23e)
Zn          33.37641963098737       -0.04316309204403        0.00786436220860
C           29.96865562913835       -0.13980312613208        0.02740904067922
C           30.59570122542405       -0.17753876314336        1.26676893809448
C           29.91855654516650       -0.21785600470941        2.53282836549685
C           30.87479956228281       -0.22495162701658        3.49445822540679
C           32.14964147128739       -0.19944505751870        2.82643757660097
N           31.94472041853213       -0.16364874589236        1.47853759679810
C           33.39921397977589       -0.17836307411222        3.45833633249325
C           34.63968732598515       -0.11225781870772        2.81386008755736
C           35.91846872779986       -0.14619014301129        3.46910167955603
C           36.86634655827896       -0.08742740049385        2.49960399640702
N           34.83536033421508       -0.04424044932253        1.46082923841978
C           36.17815626482940       -0.02435394682074        1.24337725894704
C           36.81096708615925        0.03429446593607       -0.01375084981443
C           36.16069798795510        0.07767034819328       -1.26247632856557
C           36.83116188792976        0.11381932430448       -2.52923492749489
C           35.86960148257376        0.13839544071096       -3.48677505668895
C           34.60020036982276        0.12465807899218       -2.81290654371313
C           33.35034822740152        0.11973250459588       -3.44267647225950
C           33.33778322674027        0.19526851377493       -4.92382958223183
C           32.79130202969920       -0.84431862017579       -5.68153483122005
C           32.77858993373300       -0.77095593094393       -7.06205560543900
C           33.30816475088379        0.34549074243586       -7.71241802510963
C           33.26775722150349        0.38001122034444       -9.19326345799820
O           33.80424931597103        1.49175090505241       -9.72002412106458
O           32.80304672640298       -0.49249748112765       -9.88242347502280
C           33.85409566292305        1.38686119247862       -6.96102280477795
C           33.86964406540478        1.30877895667475       -5.57946382356890
C           32.10965536436384        0.04852035049156       -2.79695580088873
C           30.82528619423529        0.08492356431049       -3.44593427339633
C           29.88293010793885        0.00716753921498       -2.47374030571464
C           30.57829407485296       -0.06644724372276       -1.21914281147680
N           31.92402864578544       -0.03497978841521       -1.44829435348588
N           34.81498954968117        0.08024274790514       -1.46170689759366
C           33.40767630921180       -0.23057981892981        4.94059288646681
C           32.88193210513778       -1.33689254865452        5.61350909711367
C           32.88833452644511       -1.38187635464467        6.99536544590936
C           33.41569919886003       -0.31916973031221        7.73169684403832
C           33.39313926711918       -0.41037654993537        9.21063950443933
O           33.92274777089916        0.65962911283096        9.82342358443930
O           32.94949045541169       -1.34498596319149        9.82809633887505
C           33.94163307986345        0.78808943745641        7.06505652517608
C           33.93877341112010        0.82825112042624        5.68182401274412
H           28.88321444562738       -0.15789897137893        0.03408801177903
H           28.84716204916793       -0.23068463497646        2.65771261757184
H           30.73404864183982       -0.23409772534759        4.56342102694256
H           36.07002042576719       -0.22053808811097        4.53388464917850
H           37.93836316254392       -0.09187956771948        2.61634635862477
H           37.90141676460053        0.11347614168345       -2.66131408032215
H           36.00622628541897        0.14968977511234       -4.55612307249983
H           32.39133472321748       -1.71785946568899       -5.17925647389600
H           32.36036203043403       -1.57646517913965       -7.65570390081436
H           33.73791368824083        1.43593208288662      -10.68707489916953
H           34.26321959961529        2.25675220957991       -7.46117450899523
H           34.28196317906270        2.12418127121446       -4.99572874659807
H           30.66891229808099        0.17200816883725       -4.50919026712537
H           28.80985040655873        0.00652459324507       -2.58378139296904
H           32.48280434750028       -2.16846129264665        5.04379041505007
H           32.48594136664922       -2.23940453167755        7.52347467063783
H           33.86934005516753        0.52208816549427       10.78304272955069
H           34.34973631132971        1.61634354197811        7.63221750780646
H           34.33561215651272        1.69442629857426        5.16425417796065
Zn          65.48626171311562       -0.03090496341819       -0.04194286779829
C           68.89381459458575       -0.13529088649421       -0.07593538527311
C           68.26583452314665       -0.02758424266803       -1.31072372078958
C           68.94206692797061        0.07592701219311       -2.57366997830984
C           67.98523974278309        0.18381513400331       -3.52867770427018
C           66.71090117648276        0.13740918281136       -2.86079790725394
N           66.91676368051907        0.01599737543262       -1.51804063619749
C           65.46116775235461        0.23801868878312       -3.48465614866609
C           64.22128741436021        0.23555168274133       -2.83559154699507
C           62.94204542703897        0.28647608018757       -3.48875011561215
C           61.99493127295037        0.23552392125587       -2.51799182116758
N           64.02656593463749        0.14445876630468       -1.48370797490386
C           62.68401224636492        0.14554832919843       -1.26392150664363
C           62.05201379297814        0.05474467904312       -0.00827922272954
C           62.70316351998694       -0.05588681548007        1.23591028046137
C           62.03360231940533       -0.17063039488227        2.49846103506501
C           62.99579765187838       -0.26155437272543        3.45131679395294
C           64.26475431864871       -0.19608045568058        2.77960496401313
C           65.51493554881883       -0.27578573788396        3.40369750148611
C           65.52850574046755       -0.37481576287565        4.88343442379912
C           66.07595437173738       -1.49601959881501        5.51324158097381
C           66.09017445018627       -1.58526143990058        6.89283198859201
C           65.56116298891577       -0.55307483164905        7.67034531477825
C           65.60428811236467       -0.69228103010848        9.14504664617129
O           65.06677917263636        0.34892719176008        9.79929580279258
O           66.07126139203952       -1.63899156260533        9.72621252617481
C           65.01389850830058        0.56899058018932        7.04700049595288
C           64.99688643853759        0.65372339769139        5.66585058893201
C           66.75517285239619       -0.27145135770445        2.75315998695166
C           68.04004780116880       -0.31242266982010        3.40088256820595
C           68.98161136481293       -0.27834437696315        2.42542313362019
C           68.28526026496060       -0.20481092038209        1.17134827717261
N           66.93973846315396       -0.19772337980494        1.40380363266037
N           64.04903558499015       -0.07928567977784        1.43292129679970
C           65.45199876938338        0.35705857295180       -4.96310603800691
C           65.97004463993434       -0.66821257903048       -5.75916639541190
C           65.96240343209467       -0.55459312304826       -7.13705874711586
C           65.44143367272298        0.58885519110669       -7.74608185383720
C           65.46082184430645        0.66689138691526       -9.22578298163173
O           64.94200334109492        1.80545389507199       -9.71096759039776
O           65.89552880143093       -0.19488483023492       -9.94724811188159
C           64.92389211779793        1.61610299341429       -6.95613886486266
C           64.92790790542848        1.49747413887378       -5.57740324253324
H           69.97919217039251       -0.15578417360397       -0.08583411429749
H           70.01333193755022        0.07328392055960       -2.70032009937557
H           68.12524525032993        0.29764507988987       -4.59170608774098
H           62.78953451763713        0.33960522791648       -4.55467908598835
H           60.92284898965253        0.25069877411734       -2.63327940800170
H           60.96344466174917       -0.18559794546232        2.63042739748904
H           62.85988972893328       -0.37766203228248        4.51448264740246
H           66.47560888382070       -2.30445526620642        4.91153998111140
H           66.50943508351193       -2.45471823448060        7.38725278153874
H           65.13449173721908        0.18015872062507       10.75304554575360
H           64.60503485345367        1.37392364533819        7.64630190877699
H           64.58368694575535        1.53186508491272        5.18236527562397
H           68.19731761209724       -0.34938935795486        4.46692614284497
H           70.05476214387679       -0.29341625020742        2.53371014133327
H           66.36410707951157       -1.56211033158598       -5.28902138247768
H           66.35828960449888       -1.34875750167104       -7.76055015780295
H           64.99376053279519        1.77826763616957      -10.68010926476798
H           64.52129168563451        2.50669633491590       -7.42409566884193
H           64.53746669324141        2.30138987764245       -4.96349266437579
C           42.01524060068968        0.01214822735593       -0.03353068472660
C           40.78758211214938        0.02310855174222       -0.03205261110929
C           39.44167984755697        0.03153354825364       -0.02935348842998
C           38.21837971352343        0.03762446472349       -0.02215309915480
C           43.36105868006414        0.00560372250057       -0.03379070919799
C           44.58449605192539       -0.00146713020954       -0.03286175903502
C           58.07531384315919        0.05698130135509        0.01697310161404
C           56.84761653776158        0.04622537974773        0.01833048908228
C           55.50178921427029        0.03681548821416        0.01793233177287
C           54.27834137641036        0.02716925953659        0.01711410867162
C           59.42126276483099        0.06109559570845        0.01126013746516
C           60.64460946855893        0.06261396445885        0.00295800293710
Zn          49.43185610023463        0.01108220913399       -0.01038133722085
C           45.99141325230923        0.00212368115297       -0.02952273997566
C           46.63854835111385       -1.24837659694999        0.01307118692600
C           45.96462198539613       -2.51330192086425        0.01728916689495
C           46.92294598696587       -3.47334640519711        0.06627556000354
C           48.19258796157563       -2.80203919580799        0.10285942701977
N           47.98314877461480       -1.45012700174843        0.05901313889475
C           49.44055757445563       -3.43353922803434        0.14891928505655
C           50.68557843046962       -2.79446975312256        0.13808127646664
C           51.95826734754446       -3.45290456521521        0.24083940162277
C           52.91178086500516       -2.48739247399806        0.20381081428726
N           50.88828067023753       -1.44346659236090        0.05607928794801
C           52.23171379058819       -1.23118427057009        0.08709707073282
C           52.87143063009351        0.02147630721280        0.00951558721461
C           52.22445246590741        1.27003931048547       -0.07606847688353
C           52.89855051534828        2.53009829599392       -0.18512897761859
C           51.93999832481347        3.48997255568999       -0.23542524728854
C           50.67005465977505        2.82423816685690       -0.14818738340278
C           49.42201832770506        3.45666066983671       -0.17479274218799
C           49.41827230403237        4.93864981163600       -0.24209669754058
C           49.98072235574760        5.69512739063767        0.78957209832349
C           49.97246217074714        7.07632548355144        0.72733536860430
C           49.40662684596904        7.72789019830982       -0.37036417304549
C           49.42474760581074        9.20961517031879       -0.39350986964845
O           48.85612285411791        9.73681748706338       -1.48884218204427
O           49.89769657155676        9.89853630797812        0.47462081520624
C           48.84619994114895        6.97738376266245       -1.40458327212282
C           48.85091243742779        5.59519024162322       -1.33726152481739
C           48.17680937089182        2.81889769165508       -0.14282721483380
C           46.90324287140892        3.48324221650607       -0.12098542662685
C           45.94976320941328        2.51789089055307       -0.08059644075766
C           46.63074852580738        1.25681036985428       -0.06761125793069
N           47.97448204941049        1.46602785172850       -0.10008678990808
N           50.87951437959020        1.47433788392592       -0.06259196324974
C           49.44407576951371       -4.91560068339764        0.21586468777816
C           48.86786044215509       -5.57648001215388        1.30407533448324
C           48.87436742048751       -6.95772140892939        1.36562311987844
C           49.45219219577552       -7.70519494052645        0.33752354807849
C           49.43248665630609       -9.18309710446684        0.44719867419088
O           50.01132416109859       -9.80660843467585       -0.59055829394677
O           48.95009286314893       -9.79102157034477        1.36891358015295
C           50.02634669318406       -7.05052919847298       -0.75272244546716
C           50.02349892321444       -5.66780166808064       -0.80920123370842
H           44.89469534178815       -2.64228901677494       -0.02035133470845
H           46.78421015313575       -4.54241263758677        0.06579996698489
H           52.10216411535660       -4.51658542304852        0.34142117910929
H           53.98211427691349       -2.60711957622937        0.25755823380022
H           53.96871576502012        2.65640361716379       -0.22495191991428
H           52.07910843551842        4.55433062712312       -0.33528497918569
H           50.40973311966342        5.19139486093524        1.64836744630267
H           50.40202616775792        7.66936669592604        1.52730255328054
H           48.90928035551929       10.70431954713769       -1.42714861618995
H           48.40908625087953        7.47859182306125       -2.26009599706815
H           48.42608488893053        5.01197522485907       -2.14653971944830
H           46.75827133613038        4.55150223910680       -0.12336689912090
H           44.87885030056449        2.64144769106661       -0.05466450493898
H           48.42939159506145       -4.99766038121033        2.10907165334362
H           48.43394689995857       -7.47650452599971        2.21004288225451
H           49.95709205331385      -10.76465227447757       -0.44242945671734
H           50.47256980349591       -7.62658385450889       -1.55474340633940
H           50.45911695028887       -5.15963441502965       -1.66217441833384
