118
 energy: -205.890023573069 gnorm: 0.000444018011 xtb: 6.5.1 (b24c23e)
Zn          16.82038893565015       -0.06231116460672        0.01715881717541
C           13.40303270740360       -0.10417535922006       -0.04179776192385
C           14.03735493547670       -1.33718380971538        0.04915878259352
C           13.36785509560868       -2.60272982615018        0.15953501018137
C           14.33046773830549       -3.55446046720282        0.24827427996465
C           15.60081517727402       -2.88157231253275        0.18343111519224
N           15.38754999609571       -1.53911403510775        0.06912909120175
C           16.85384661552339       -3.50105747406563        0.25733385120955
C           16.86759977992860       -4.98235234419653        0.36393531978264
C           16.33815844422206       -5.77013038332069       -0.65854918586881
C           16.34126354783458       -7.15328906465197       -0.56231827401582
C           16.87174669145320       -7.76545200534982        0.57059249902761
O           16.88878445083875       -9.11726074035014        0.70857739815610
C           17.40302569768756       -6.99070763577975        1.59984783806513
C           17.40177782816121       -5.61113540316184        1.49107946764784
C           18.09100100565303       -2.84737900049655        0.23965487840999
C           19.36751813822682       -3.50343072317284        0.26838506677619
C           20.31458456560118       -2.53301550879554        0.21723698025092
N           18.28948057433868       -1.49386000562540        0.16039110959615
C           19.63380559854217       -1.27511706796687        0.14847156326119
C           20.27181594233954       -0.01911295865283        0.06304461388987
C           19.60520232719195        1.22106683248475       -0.03373975334428
C           20.25723512847185        2.49031343533525       -0.15364164973097
C           19.28837327868225        3.43700084900810       -0.23204993468588
C           18.02704613882179        2.75586939216368       -0.15307178834484
N           18.25626862432606        1.40963829827679       -0.04185681736605
C           16.77528432232725        3.37938431149440       -0.21173738551875
C           16.76038831790971        4.86161181855629       -0.29963064504560
C           17.30451030344831        5.63891579423473        0.72590899212735
C           17.29011085285845        7.02057046633756        0.65332081448116
C           16.73226652920961        7.64803963126855       -0.45891418713293
O           16.73751641886782        9.00626655454122       -0.50043186268986
C           16.18848914795539        6.88695391233612       -1.49071163395717
C           16.20175202269970        5.50300326846525       -1.40537709828723
C           15.53641973809663        2.72808981309482       -0.19250701249686
C           14.25086670837470        3.37461110912724       -0.20914851655549
C           13.31047065001983        2.39775937385137       -0.16757380914973
C           14.00902147462805        1.14422307506692       -0.11443609132451
N           15.35416917367556        1.37775598828869       -0.12777892203057
H           12.31745477363433       -0.11673541680786       -0.04295969517650
H           12.29707765976931       -2.73378455188044        0.17479498554111
H           14.19668500907584       -4.61843144864046        0.36172535842823
H           15.93444039823238       -5.29486204462732       -1.54575757079393
H           15.93362100998280       -7.76062774590879       -1.36347209024368
H           16.49470643310857       -9.55278245780127       -0.05903875643978
H           17.80917148333367       -7.48043391664334        2.47629822833434
H           17.80317764141963       -5.00807458872798        2.29789122374111
H           19.51992150050908       -4.56992178543528        0.30801588781384
H           21.38381073144402       -2.65694939125790        0.21904374829695
H           21.32329581584576        2.63623259117186       -0.18222737254044
H           19.41667687308012        4.50101824655862       -0.34851240452741
H           17.72770452602828        5.15094739107976        1.59687067737352
H           17.70581936915111        7.62510209444316        1.44997735102799
H           16.32613932221756        9.33425360993386       -1.31121578219201
H           15.75889380643373        7.37968951187790       -2.35647104846002
H           15.78945176397216        4.91187991735081       -2.21567407758264
H           14.09245133785932        4.44092588148779       -0.23520308097550
H           12.23691849526549        2.50489655018482       -0.16396112763995
Zn          27.76738204014699        0.06414703953288        0.00830022231007
C           31.18473855334003        0.09687455765519       -0.05669829199405
C           30.55048886757345        1.33021821008734       -0.14354154090328
C           31.22006642298464        2.59845602721168       -0.21605765826368
C           30.25751456155092        3.55314750493906       -0.26453756791433
C           28.98712349886177        2.87801341920289       -0.23188673050864
N           29.20030672452244        1.53302666155052       -0.15243818569020
C           27.73412770268525        3.50176397810906       -0.24738515621553
C           27.72030802339386        4.98303151745469       -0.35433884787572
C           28.24951770752916        5.61606934520446       -1.47931316431376
C           28.24593399925336        6.99871939887120       -1.58260499399449
C           27.71519239293971        7.76697526667759       -0.54929111916781
O           27.69753540440195        9.12458066501892       -0.60683528840567
C           27.18427011291350        7.14781145317797        0.58058164129458
C           27.18600134550414        5.76691571750657        0.67095364637117
C           26.49693540445777        2.85237664668226       -0.17101261111622
C           25.22045236889755        3.50583523367682       -0.23671855473197
C           24.27332425055369        2.53818788524767       -0.14807711747123
N           26.29837084812226        1.50150451067250       -0.05525656365037
C           24.95403356745159        1.28337820900056       -0.03587318639504
C           24.31594739686374        0.02813954548560        0.05961784096801
C           24.98249304691846       -1.21312324028564        0.14190001914389
C           24.33040355093842       -2.48640190143384        0.20552776857556
C           25.29921751010799       -3.43459618018698        0.26373949037091
C           26.56057019543368       -2.74923098263294        0.24421156423588
N           26.33141878264162       -1.40095834084815        0.16115215655903
C           27.81229196580399       -3.37477087709625        0.27558529809325
C           27.82722872088933       -4.85428222434824        0.40121618125303
C           27.28352955515556       -5.47653893560086        1.52779268928313
C           27.29832526889927       -6.85431798795429        1.65414333011649
C           27.85611423586383       -7.63472375387524        0.64329698151138
O           27.85135570825800       -8.98485093621704        0.79713799654734
C           28.39934371285420       -7.02940970549160       -0.48721240201731
C           28.38571067930139       -5.64753601666822       -0.60126861341025
C           29.05118829593316       -2.72752923718743        0.20107927270769
C           30.33670272114923       -3.36983391041655        0.27728677346516
C           31.27715605473957       -2.39720200980940        0.17806280407315
C           30.57867746622284       -1.14897341134660        0.05076196228116
N           29.23351602042253       -1.38190291017080        0.07127914275428
H           32.27031688140881        0.10905002023506       -0.05987213769261
H           32.29085436371630        2.73025606990324       -0.22003601381399
H           30.39136912709208        4.62237856164815       -0.30494130144099
H           28.65336970544100        5.01852101501388       -2.28915604295506
H           28.65333964062264        7.48491379997695       -2.46266958090333
H           28.09124610587222        9.44554890121520       -1.42913778812788
H           26.77796370478740        7.75812849266162        1.37768932769317
H           26.78483202990087        5.28576446463949        1.55599907593274
H           25.06810433489836        4.56698479597260       -0.35054238031696
H           23.20410395071358        2.66115905024097       -0.16410515619729
H           23.26433787665980       -2.63486289242062        0.19811526764266
H           25.17088406826693       -4.50431024756365        0.30112729662035
H           26.86038987680366       -4.86878636839872        2.31985733979943
H           26.88304276433076       -7.33842208901264        2.52942954213264
H           28.26281084580694       -9.42565137058026        0.04177254419510
H           28.82883434180475       -7.64113141034018       -1.27347843935561
H           28.79762908333807       -5.17864058540419       -1.48809513555212
H           30.49505492446051       -4.42885360424396        0.40457917523294
H           32.35070194740104       -2.50279332728113        0.19689129957241
C           21.68436971472501       -0.00285369751956        0.06252801182261
C           22.90339345233329        0.01203510971773        0.06144629431203
