192
 energy: -367.624103935706 gnorm: 0.000506528481 xtb: 6.5.1 (b24c23e)
C           30.68904330157336       -0.26175634525944        0.10876393040805
C           31.28633338650920       -1.08613048176479       -0.83599526712335
C           30.62221174475487       -1.91310433737859       -1.78513876352338
C           31.57504328579979       -2.55129821525795       -2.52784487154002
C           32.85304219737727       -2.14900312391522       -2.04441535216712
N           32.62724983061131       -1.25665132180205       -1.03440793954539
C           34.11204947650180       -2.56103515358254       -2.49460088458340
C           34.14082282438176       -3.54705016216984       -3.60305248124452
C           34.77324591819193       -3.21440063884017       -4.80459567819625
C           34.79883426039303       -4.13008969813650       -5.84866118326777
O           35.39387763626578       -3.87156036782375       -7.05578474251776
C           34.20160932030404       -5.37935829671025       -5.70090917387075
O           34.21508159541539       -6.30179205506028       -6.71402748856200
C           33.57272060362337       -5.71414219638584       -4.50058878612490
O           32.99805186771837       -6.93412567855301       -4.36511273442132
C           33.54018663869212       -4.79756699917142       -3.45592728091912
C           35.33137904573564       -2.11115725737932       -1.97957221651255
C           36.62368251520213       -2.62757091791555       -2.39249294190461
C           37.55025000158197       -1.95207060057531       -1.68118897934019
N           35.49465208805410       -1.15623719289501       -1.02377094259616
C           36.82408935827955       -1.02791804236047       -0.83257462262820
C           37.46891430571314       -0.10904848440640        0.01828371022692
C           36.84300417696403        0.82167057720607        0.86767426486222
C           37.49363974957469        1.78464343688652        1.68367838850659
C           36.53379242410816        2.47849197210478        2.36675842317987
C           35.26559073114126        1.94714303274483        2.00253165677869
N           35.50390857610206        0.95863112185144        1.08438022846072
C           34.00842620764733        2.34290699572838        2.47265911509186
C           33.98115635892370        3.42517826918420        3.48664172777226
C           34.64255921657200        3.26994815708817        4.70549477324849
C           34.61678386168437        4.29092597759582        5.64832704422494
O           35.25230848632502        4.14807529502119        6.83720470933996
C           33.93299694126601        5.47599559442785        5.37218994607727
O           33.92943477457697        6.46710994876450        6.31841285660962
C           33.27325991339790        5.63133647341790        4.15568820182923
O           32.62723552918404        6.82294145330342        3.95459094548090
C           33.29214772467714        4.61056301965576        3.21384301545760
C           32.79146251526996        1.79298967051587        2.05498295308293
C           31.49727446429219        2.14722690596200        2.61696363105383
C           30.57950511254589        1.41163917025728        1.95752196471537
C           31.31190691868679        0.60473125451180        0.99773686692074
N           32.64152799607202        0.85039798471106        1.09436405830508
H           29.60467442594967       -0.29631928827706        0.14122228209425
H           29.55126688286785       -1.99241344764761       -1.88327856123593
H           31.41230591045498       -3.23737302912301       -3.34306311344363
H           33.35971874817393       -0.78882776774344       -0.51106829314293
H           35.22765417367171       -2.23879986103256       -4.93150060384154
H           35.78203948766929       -2.98679996180542       -7.06447705168878
H           34.68822616521857       -5.91224230067912       -7.46646826491150
H           33.12839116160213       -7.42654028605962       -5.19232882850415
H           33.06640816024240       -5.07652613442312       -2.52361562520036
H           36.77997986243285       -3.41271349214611       -3.11452216959311
H           38.62334991580850       -2.05252670879752       -1.71197219986196
H           38.56101505376621        1.92556152228982        1.73402951749687
H           36.68871588842135        3.29004853389355        3.05867541247534
H           34.77766052479252        0.41015944530791        0.63556617859041
H           35.16055058010333        2.34875122117246        4.93914709163140
H           35.11367558046668        4.95764468482289        7.35597053235644
H           33.41002568972782        7.20962389299944        5.97095160748934
H           32.19235209610785        6.83651858089453        3.09190546089678
H           32.79036298158233        4.74504121178459        2.26280017956710
H           31.33865160715067        2.85068236067145        3.41859688834418
H           29.50903358262559        1.39035484409416        2.08994718916566
C           59.16963180326343       -0.03277803061477        0.22836812538436
C           58.56521678752210        0.84472184955593        1.11922476389877
C           59.22263381598470        1.72905285367177        2.02009967488081
C           58.26457869181042        2.41625946060751        2.71060312774002
C           56.99001130702596        1.96323635723186        2.26458158786514
N           57.22283361004200        1.02633987924602        1.29753290947120
C           55.72854653925046        2.37982821325858        2.70377083975652
C           55.69643215231274        3.39220645047633        3.78839001301173
C           55.07640687532095        4.62541608874631        3.56854086303145
C           55.04715791576361        5.57407425872537        4.58289672871767
O           54.46447099564465        6.80591560750434        4.43859833599063
C           55.62707166685700        5.29833940336281        5.81858589784925
O           55.60808096160503        6.21495037948643        6.83701935824712
C           56.24374426306227        4.06599166430423        6.04036630269306
O           56.80140821155918        3.80549556022092        7.24803591902813
C           56.28118655641130        3.11753283225908        5.02495029295671
C           54.51178056717573        1.90646557673143        2.20481050582829
C           53.21607624222877        2.27840931435943        2.74362134064222
C           52.29438623055859        1.61397494051652        2.01584612779080
N           54.35518168334585        1.02246069472428        1.18188654166821
C           53.02707818802587        0.83518603128197        1.03672528349506
C           52.38942884191658        0.01112890699400        0.08917164721224
C           53.02022010802180       -0.80829000150253       -0.86441016441402
C           52.37375671565189       -1.57455532903127       -1.87043704386256
C           53.33744816553469       -2.20841334083263       -2.60423474041416
C           54.60436585399815       -1.85805830861504       -2.06042821782055
N           54.36076799194365       -1.00336909950400       -1.01769637810615
C           55.86530108645568       -2.27541835111334       -2.50017736914347
C           55.89785267922542       -3.21477881535812       -3.64782186355440
C           55.26911063161300       -4.45744076703728       -3.56294660517306
C           55.29691071642446       -5.32889813398888       -4.64551893458755
O           54.69394361890826       -6.54025428124713       -4.57065873573870
C           55.94890071364240       -4.95604133037261       -5.82208996167712
O           55.95434838754391       -5.83262279484813       -6.87515981240450
C           56.57583250838953       -3.71548323867623       -5.90710067878204
O           57.19137894191525       -3.41802249778738       -7.09479933702177
C           56.55608308447082       -2.84540356807656       -4.82447334713305
C           57.08078204315002       -1.86719107006549       -1.94009299035952
C           58.38105171881946       -2.37740463643623       -2.34622684643130
C           59.29463918925832       -1.75370943178222       -1.57507970720964
C           58.55379851952343       -0.86598055790073       -0.69654242640088
N           57.22362392438544       -0.96936572542809       -0.93651767926822
H           60.25434030629983       -0.05723411081856        0.25935948291949
H           60.29290942033374        1.82333346257452        2.11216234158482
H           58.42118368334837        3.17555712068184        3.45947056557979
H           56.49403230738348        0.53812036450860        0.78787974449118
H           54.63443509639248        4.85159114985122        2.60529656922912
H           54.08442658055690        6.90480890026549        3.55580559734280
H           55.14117914917348        7.00425582218172        6.51956914680793
H           56.66859854524025        4.58030132503906        7.81876440818354
H           56.74586617463831        2.15861806740835        5.21485759464029
H           53.05485978354599        2.94059099911867        3.57889944470079
H           51.22146390605681        1.62289446765413        2.12286760474140
H           51.30682258371974       -1.61857045104742       -2.01713183480336
H           53.18644236545512       -2.85431339136749       -3.45355633922086
H           55.08520871059572       -0.57220731797016       -0.45297497927146
H           54.77492681153539       -4.76482175494308       -2.65037569623339
H           54.82364679302128       -6.99904709353571       -5.41705225472243
H           56.44628603442143       -5.42131092264967       -7.60358847805174
H           57.60292837209975       -2.54462028684238       -7.05918767844659
H           57.03214659168631       -1.87509833626360       -4.90355255635745
H           58.54627107401544       -3.12436987760852       -3.10607367268769
H           60.36754233433335       -1.86683057089942       -1.57348560059128
C           38.87914266870914       -0.10052756843815        0.01733927767213
C           40.09574523321598       -0.08597321009325        0.02131045555280
C           49.76264396034561       -0.01083353567030        0.06052709232326
C           50.97895042718790        0.00306934066423        0.07820168691647
C           41.50532386262002       -0.07592874331559        0.02040650912250
C           42.13892830626119       -1.30811710935095       -0.22545068091019
C           41.49958704426904       -2.56107157636769       -0.41162862016691
C           42.46936643801386       -3.50196772010556       -0.62635397098239
C           43.73103748063740       -2.84870058908477       -0.58503603947990
N           43.48079344813355       -1.52657926254690       -0.33000567820762
C           44.99417738464732       -3.43024108665117       -0.75131142794333
C           45.02073119787622       -4.88180756979459       -1.05750318708597
C           45.66415131630605       -5.76893590171777       -0.19348048162790
C           45.69417882124968       -7.13497739660854       -0.45976751414786
O           46.30891222207749       -8.00848803943764        0.37911148959226
C           45.07872378465495       -7.63016256608605       -1.61418673601874
O           45.09430246665418       -8.95680017000780       -1.90439732239457
C           44.44016361150816       -6.73528033508661       -2.47674968732550
O           43.86215356391797       -7.28428170015299       -3.59269994867909
C           44.40061750711765       -5.37423201276937       -2.20758913137250
C           46.21300081254912       -2.75709516536496       -0.64326552543428
C           47.50374500480637       -3.37565077590227       -0.88665954492109
C           48.43243786691079       -2.42292739797735       -0.66302881950180
N           46.37848582198017       -1.44890861196244       -0.30523133596476
C           47.70861210123121       -1.22220974717497       -0.29550836299999
C           48.35283575713901       -0.01900061022619        0.05053916237889
C           47.71935909262620        1.19111461414111        0.38772337149812
C           48.35985264889905        2.40664194198492        0.74319330007124
C           47.39068552072452        3.34982903987188        0.94871753883170
C           46.12836353842873        2.73970873601084        0.71383884207360
N           46.37736087298153        1.43226105885388        0.39183586715057
C           44.86631291154772        3.34026384571612        0.79766398628172
C           44.84189180526463        4.79119612147650        1.11071700477678
C           45.46585352985370        5.70310896708813        0.25861108447326
C           45.43681986350683        7.06198990517049        0.54923819928227
O           46.03320111893503        7.95699846398968       -0.27622833770434
C           44.78896043151386        7.51328931726362        1.70014550827892
O           44.77954329145680        8.85817076160052        1.96283833592814
C           44.16969553998830        6.60278131707594        2.55274446994613
O           43.55818253284036        7.12014493721544        3.66424623993414
C           44.19104252767948        5.24464846321448        2.26139398622631
C           43.64691867412291        2.68696596719518        0.60691885531391
C           42.35810312401980        3.35475692468557        0.63009419643314
C           41.42871595325376        2.39926655338501        0.42060626490107
C           42.15036954188113        1.15289668695654        0.25914334782760
N           43.47969508887385        1.35822831277448        0.36275124328494
H           40.43408264553445       -2.71852048246175       -0.37169974710337
H           42.32477036270128       -4.55793882849080       -0.78633880705249
H           44.19847447419977       -0.81813873516995       -0.21909865174836
H           46.13235520218483       -5.39753466447117        0.71108187249029
H           46.70523888160534       -7.54979620116076        1.13152556961997
H           44.62186398284157       -9.08999362924668       -2.74192271404459
H           43.45238904914462       -6.60145632005788       -4.13928941882099
H           43.91220103119044       -4.69991099497528       -2.90129865628293
H           47.65759698027844       -4.39574234766039       -1.19911370767666
H           49.50529071014253       -2.50143133523881       -0.73584869931145
H           49.42650869782911        2.53638363267878        0.82811688138712
H           47.53573383082399        4.37649421803344        1.24255272049291
H           45.65980687815216        0.74586048249870        0.18395739589457
H           45.95638955686000        5.36671111538312       -0.64570428911054
H           45.89921464175787        8.84623781190559        0.09125430601724
H           44.28947718850926        8.99734746573397        2.78888113795854
H           43.15016550967877        6.41949296767124        4.18983513044072
H           43.71907637930416        4.54054938532022        2.93646016214382
H           42.20573257576854        4.41277092843209        0.76971159872573
H           40.35772213026891        2.50727327197831        0.35857539556039
