210
 energy: -414.183183596863 gnorm: 0.000612890686 xtb: 6.5.1 (b24c23e)
C           24.39164540723775       -0.04148103946277        0.13711625157189
C           24.98438749879066       -1.25179286144380       -0.19772249574695
C           24.31814589192660       -2.48132418067131       -0.46326923753287
C           25.26620390479044       -3.41751888272550       -0.76465435517584
C           26.54252713428974       -2.78762721899635       -0.70055092227121
N           26.32215866032246       -1.48724965034013       -0.34705797081050
C           27.79670018230468       -3.36847897552955       -0.91954744276672
C           27.80423060176478       -4.79673104840235       -1.31896492174595
C           27.18347974856120       -5.19805057899450       -2.50473961482528
C           27.18665014437475       -6.52991631858751       -2.88493649762556
C           27.81182284730421       -7.45421212576715       -2.06381762572543
S           27.82319912196365       -9.14110843524008       -2.54113289247109
O           27.63360530604450       -9.27718578239737       -3.95587376078443
O           26.44734704705544       -9.60360388804010       -1.81100570832294
O           28.91849769436795       -9.83098699694783       -1.92735660797945
C           28.43728268334582       -7.08711625069590       -0.88333863169113
C           28.43135277114986       -5.75188994067205       -0.51493531319184
C           29.02279824925368       -2.71064399048198       -0.79206361106766
C           30.30813376216071       -3.32677850967041       -1.07059434081781
C           31.24287302248841       -2.38393945495848       -0.83257442936584
N           29.19703416153448       -1.41435657354434       -0.41633592489343
C           30.52699863646803       -1.19087156569052       -0.42333397904292
C           31.18177081310527        0.01193401522978       -0.09106557206092
C           30.56342813533856        1.22713577760695        0.25862407020901
C           31.22508897637129        2.43751148926150        0.59665045340604
C           30.27105016674786        3.38067865640115        0.86000547437120
C           28.99577564756436        2.77466640197521        0.68506714706670
N           29.22441159055386        1.47267798348938        0.32798329259107
C           27.74139542011358        3.36419289468685        0.87518277335639
C           27.73062859841601        4.80051418594142        1.24252964320559
C           28.26465492248693        5.75391187409608        0.37162507947450
C           28.25356953533716        7.09762081766703        0.70705786136090
C           27.71060729294510        7.47457454443682        1.92476662415131
S           27.69111953074468        9.17454417675594        2.35211351729401
O           27.71295111887538        9.99562473663633        1.17755846647432
O           29.15455847286257        9.25632551439922        3.05286396515189
O           26.69960576391868        9.43789037382385        3.35279633809753
C           27.17325963749757        6.55332184803744        2.80899318940536
C           27.18379837702630        5.21281248303818        2.46041474925141
C           26.51479487684846        2.70425316732911        0.74723129933350
C           25.21824088713498        3.34494330006823        0.90866916718476
C           24.29178168590832        2.38725338298809        0.70610638260727
C           25.02048503991213        1.16630891312909        0.40828306080035
N           26.35621424259046        1.39663927535691        0.43527414780277
H           23.30743680234029       -0.04821587587737        0.18440577616549
H           23.24961888533682       -2.61920207867799       -0.42062146905874
H           25.10267270945181       -4.45629755776819       -1.00148602872489
H           27.05495635900596       -0.79875805684969       -0.21226149454420
H           26.71215479427453       -4.45727149763548       -3.14013961182024
H           26.71858754136361       -6.84976843939662       -3.80744988304664
H           26.19670484786097      -10.48787692584163       -2.10484814930317
H           28.92103869610919       -7.83539753757268       -0.26821960826984
H           28.90441593633355       -5.44541782796000        0.41062437487652
H           30.45353382828647       -4.33817925918805       -1.41366870590774
H           32.31415507529614       -2.45916338122258       -0.92785000503879
H           32.29539899744788        2.56015128093497        0.63472942706514
H           30.43314185257695        4.40303949472885        1.16012627466681
H           28.49296878114763        0.79170697007690        0.15215123283116
H           28.67315009661244        5.43950992812912       -0.58174111138656
H           28.65302554103684        7.84597520138820        0.03416235676632
H           29.33044190794719       10.15567143093225        3.35507430780431
H           26.75258860069761        6.88355259188781        3.75046024813429
H           26.77856513981910        4.47468583753590        3.14259549474563
H           25.06306486388536        4.38794099977547        1.13290119687569
H           23.21682984079441        2.46974887273810        0.73820684517537
C           68.32630842381160       -0.00115469546536        0.12826128467583
C           67.72418129101824        1.19594617457799        0.49255975675238
C           68.38153905976407        2.38623977731296        0.91349251847228
C           67.42554406989127        3.32980824433758        1.16239010435590
C           66.15299406979224        2.74827775694407        0.89366769684719
N           66.38357000182411        1.46054039109237        0.50252023862735
C           64.89348009176707        3.34382909723441        1.02501638939760
C           64.87359543397938        4.76658303356719        1.44304896707412
C           65.47858578779943        5.74232075339601        0.64660678941649
C           65.46323191242591        7.07303540630476        1.03062144524719
C           64.84187545831186        7.41441535874396        2.22090467180975
S           64.81537710682520        9.09738013531158        2.71137633096821
O           64.98857570935729        9.96566460821200        1.58351057913377
O           66.19686695362601        9.11750602555349        3.56659473934563
O           63.72296483650433        9.34419259570181        3.60466164019521
C           64.23180713943391        6.47044669905096        3.03099158323276
C           64.24979132968531        5.14323165767673        2.63517691344668
C           63.67229137787896        2.70525495728866        0.79448832390805
C           62.38105231470779        3.36288711110004        0.89141066890725
C           61.45353702593495        2.42677530034946        0.60390622538188
N           63.50841349694750        1.40374159127252        0.43222267003130
C           62.17952200796926        1.20395289668481        0.31899337923564
C           61.53378107387523       -0.00157582129720       -0.02200840116932
C           62.16146556530542       -1.21277435495345       -0.36828440592471
C           61.50963367179165       -2.42707868455083       -0.71122585104736
C           62.47118044263564       -3.35553692689688       -0.99857973654124
C           63.74128918953463       -2.73317135232257       -0.84435445425666
N           63.50228338820384       -1.44201871956967       -0.45616417071562
C           65.00074658931149       -3.31831720403836       -1.01323018493346
C           65.02336087793334       -4.72999369384979       -1.46578759419279
C           64.47755722296812       -5.08096971201909       -2.70334046519158
C           64.50223902466119       -6.39658570874584       -3.13550572375857
C           65.07045364987475       -7.35609944575543       -2.31320782609603
S           65.10914368759342       -9.02172097047023       -2.85836034542273
O           65.07352526323639       -9.08977256872966       -4.28955540568408
O           63.65909700475002       -9.48669663974090       -2.29251472466689
O           66.11940769433694       -9.76365454845856       -2.16324869336791
C           65.61910300021229       -7.03951347258702       -1.08110161895187
C           65.59484315693469       -5.71959045094470       -0.66182018002181
C           66.22281692486203       -2.67606569867413       -0.78811109078765
C           67.52410522255899       -3.28921626667961       -1.00801640364621
C           68.44377379788207       -2.35953294903932       -0.68181058158630
C           67.70604667965496       -1.17551522481275       -0.27657101539622
N           66.37173259291615       -1.40058866950168       -0.35994843044514
H           69.41105843779795       -0.00872773366014        0.16072948091093
H           69.44991085338954        2.49187717557162        1.01355359619567
H           67.58140120255571        4.33789515199249        1.51077362738143
H           65.65565759503453        0.79751523681186        0.25809953021357
H           65.94702528028090        5.45645329541799       -0.28799163842780
H           65.91890918747247        7.83849565532159        0.41511365588562
H           66.44464548511377       10.02647873085654        3.77508929557047
H           63.75049586215376        6.77337435150400        3.95233276499436
H           63.78882050651379        4.38745221703275        3.26022145317032
H           62.22704023912194        4.40192483673964        1.13315799953205
H           60.38096991553331        2.53058982060479        0.57031411310366
H           60.44049418970394       -2.56385794530429       -0.72943378676285
H           62.31782936110623       -4.38408713857007       -1.28168324536783
H           64.22825061311312       -0.76178762913990       -0.25639035314657
H           64.04944669008239       -4.31316752679422       -3.33723813797819
H           64.09426384020279       -6.67732924516575       -4.09837874244522
H           63.50353651488880      -10.41718924851054       -2.49516984618114
H           66.05925828614791       -7.81420356363422       -0.46589159430326
H           66.00906798185910       -5.45230368649953        0.30325429106339
H           67.68671181974283       -4.28998403648701       -1.37436891910923
H           69.51939021616512       -2.43382743906082       -0.71163749417117
C           32.58800515961214        0.01414977166221       -0.10548364589509
C           33.81238182712590        0.02193329319959       -0.10283148623380
C           35.15532539844469        0.02954599178645       -0.09749381651846
C           36.38570130086587        0.04204172581113       -0.08426115792357
C           37.72367096169789        0.05212526478176       -0.06469568177679
C           38.95397927138265        0.06367813942904       -0.04212540607093
C           40.29645166470105        0.07761221246904       -0.01893760660732
C           41.52072615672974        0.09111188443444        0.00677091567962
C           51.19457345553889        0.05538847844781        0.07146618412631
C           52.41899368666642        0.03411682077042        0.06252160120098
C           53.76152506468120        0.01729426056202        0.04982365834453
C           54.99194323188212        0.00404981631712        0.03250802577395
C           56.32987658686366       -0.00535023877396        0.01529168787175
C           57.56029307301107       -0.00896006705088       -0.00222366005500
C           58.90317776208486       -0.01036399998149       -0.01337890870572
C           60.12756367650770       -0.00730908980281       -0.02228030390545
C           42.92576989536093        0.10277769525592        0.02718758496416
C           43.56127937664201        0.79017738988319       -1.02435998938807
C           42.92185764358715        1.45121613718035       -2.10503331891769
C           43.89290010941729        2.00621034497362       -2.89243720196192
C           45.15452520728645        1.70561082327524       -2.30948286649821
N           44.90357009126815        0.96133551144882       -1.18851366860126
C           46.41870372135650        2.07011872699206       -2.78826352268436
C           46.44094409821320        2.90986934049203       -4.01119394535392
C           47.04598190262510        2.43738602290648       -5.17851590329956
C           47.06526568650480        3.21459033098954       -6.32487365085069
C           46.47619913637293        4.46799436656568       -6.28846414499170
S           46.50339519649411        5.46058810138354       -7.73345759226498
O           46.37129707767091        6.84998031821283       -7.40541069661005
O           45.09812907850100        4.96886053121298       -8.38381954835752
O           47.57079336717327        5.05946693619493       -8.60064825048628
C           45.87504250143957        4.96697860425604       -5.14432851199674
C           45.85757369714620        4.17942172456068       -4.00502036820476
C           47.64104615723743        1.70994558425391       -2.21809515702516
C           48.93026932483486        2.15562096783918       -2.71698648464186
C           49.86248639137324        1.59572989394091       -1.91912632597760
N           47.81047613163845        0.91624787489595       -1.12568110854613
C           49.14129176767850        0.82002277805311       -0.92909177375613
C           49.78951223945661        0.07521590944168        0.07617992712002
C           49.15421965408802       -0.65499555351559        1.09859633104580
C           49.79365228622837       -1.41652546546784        2.11096893131151
C           48.82260230846822       -1.94478301473945        2.91658470822548
C           47.56088467401069       -1.51421998357546        2.42193198498334
N           47.81179705202640       -0.74596449269192        1.31732012619142
C           46.29660951969745       -1.82603468201511        2.93656790283805
C           46.27318284024222       -2.64875559323740        4.17109913724327
C           45.67397742459104       -3.91083789057952        4.16553525291624
C           45.65124944368170       -4.68364154084097        5.31480468732022
C           46.22808538508165       -4.17736510552909        6.46820614639458
S           46.21097432285539       -5.15392834402673        7.92430026138015
O           46.07122684357026       -6.54182710038562        7.59769120138792
O           44.80770481085774       -4.62620030100531        8.54774976318232
O           47.26251513861993       -4.76310072577375        8.81721925878757
C           46.83100685145290       -2.93056765516658        6.50466642139545
C           46.85298576287537       -2.16864588246220        5.34810405298894
C           45.07404447694275       -1.43183304938583        2.38982448567194
C           43.78444852233626       -1.73691721496425        2.98451513818962
C           42.85214897153013       -1.20270991512133        2.16924211636410
C           43.57360929409213       -0.56254570146527        1.08684931498958
N           44.90446628789213       -0.70666883498755        1.25078969806556
H           41.85512112454832        1.48852115458238       -2.25559390801320
H           43.74995107709160        2.56576621635600       -3.80232695609596
H           45.61913326767797        0.58713036994226       -0.57436399983177
H           47.49111238192788        1.44938692877648       -5.18858790568350
H           47.53154409688357        2.85842734902298       -7.23484237978899
H           44.86451447074461        5.52898121158897       -9.13406449239337
H           45.43583556360537        5.95667722812792       -5.14734270747424
H           45.40384633444464        4.55639402006210       -3.09582175569108
H           49.07963415516317        2.81758016105326       -3.55438059383360
H           50.93533234426879        1.68996851289233       -1.96818915589560
H           50.86044996043242       -1.54187276469234        2.20155478889173
H           48.96552211326762       -2.58457548178290        3.77196856385451
H           47.09628818473829       -0.31258720239246        0.74334582309392
H           45.23855227178059       -4.29265652497266        3.24957985081432
H           45.19916702893308       -5.66746953455697        5.31894359374437
H           44.69736429927014       -4.95117700539699        9.44957190818277
H           47.27701784604891       -2.56787163684674        7.42222784366216
H           47.30970239139565       -1.18584235538176        5.35849962133498
H           43.63470792187435       -2.27478869816011        3.90648878978015
H           41.77904621027879       -1.21751886540819        2.27228904182824
