112
 energy: -197.765841241793 gnorm: 0.000305290098 xtb: 6.5.1 (b24c23e)
Fe          12.38525060464092       -0.05449431482311       -0.05618409771861
C            8.99501588410627       -0.07410495987400       -0.09290323120014
C            9.64611106733368       -1.29024577901358       -0.07697794805572
C            8.96702104009654       -2.55084833162744       -0.07914766090326
C            9.91890001048036       -3.50407950618410        0.05323371048794
C           11.17989451345812       -2.82382612589425        0.12351350992413
N           10.99999672783939       -1.47018479178171        0.03304609381010
C           12.39531846984073       -3.46227722275904        0.34348242235013
C           12.40044347163066       -4.93510752082764        0.51100158644332
C           12.75140070577811       -5.52137709189453        1.72588266874732
C           12.73990081050652       -6.90303903585648        1.83611918007035
N           12.41329708200845       -7.70698674422847        0.82950091395265
C           12.08084879132809       -7.15524395511659       -0.33295818174528
C           12.05663384240982       -5.78472842300904       -0.53909261635073
C           13.60538328221796       -2.78684942031623        0.40303728045283
C           14.87131087257806       -3.43601875466873        0.57322283797350
C           15.82085773929409       -2.47747215338273        0.45423453957508
N           13.78341662529415       -1.43796824996882        0.20397981797023
C           15.13317290707327       -1.24784168292723        0.21250861118678
C           15.79481092341617       -0.03732940443867       -0.02743878921950
C           15.12059431351886        1.17058143547652       -0.24500644091198
C           15.79382628765065        2.40359648155767       -0.50816442169549
C           14.83762581689451        3.36090654176092       -0.57529528967966
C           13.58297619820648        2.70789292556639       -0.34773206398222
N           13.77216518648877        1.35776965851963       -0.17360613770659
C           12.36428957611920        3.36976006685350       -0.29361584437535
C           12.35521830932211        4.84512548494906       -0.41900747388037
C           11.70014378469428        5.47672654763669       -1.47565337281955
C           11.72239263724878        6.86019452455635       -1.55379889495658
N           12.33951615178885        7.62616860053777       -0.65994413729578
C           12.96497192414013        7.03207037680117        0.35110911667462
C           13.00319749371272        5.65593015407601        0.51195340745845
C           11.15031782318438        2.70755689036964       -0.14598115782049
C            9.88037314237449        3.37029667992719       -0.06822566898138
C            8.93581802680189        2.40155771524235       -0.02694090599652
C            9.63029232870988        1.15001307167902       -0.06241083053013
N           10.98563888517268        1.34955689495933       -0.09816043175071
H            7.91110185973928       -0.08081361411638       -0.11798686680472
H            7.89820842437115       -2.66984431818769       -0.15939296035714
H            9.79057430885383       -4.57273660070150        0.11039789610829
H           13.01599751047782       -4.90369737193933        2.57573394367067
H           13.00465527526928       -7.38395482190498        2.77320674563373
H           11.82196687918888       -7.83857184526585       -1.13644138339071
H           11.78898218020787       -5.37878759677346       -1.50727241227452
H           15.00593838432179       -4.49194608503605        0.74169435266170
H           16.89244034712720       -2.57964808290711        0.51347793692876
H           16.86050966143956        2.50768854220235       -0.62448724088504
H           14.96009666781272        4.41362387025893       -0.77088507806287
H           11.19468848680384        4.89150497076743       -2.23453682669599
H           11.22316515613918        7.37464449342384       -2.36966102103840
H           13.45823388778494        7.68481218163468        1.06534197396325
H           13.51634600607347        5.21561697003780        1.35851058930577
H            9.74243688633555        4.43902966287574       -0.04558134184626
H            7.86368593690765        2.50489324770267        0.02569728421068
Fe          25.80054145225889        0.03653115533943       -0.06916092166385
C           29.19097914161737        0.04465249593733       -0.10788875731038
C           28.54002872340909        1.21336995956591       -0.44481602942076
C           29.21947064415306        2.41913457996913       -0.81191758725945
C           28.26766024815776        3.36955532734264       -0.96347059892012
C           27.00639493619375        2.73881420822607       -0.70046464159130
N           27.18605901601998        1.41733123342970       -0.39326330270051
C           25.79077234840335        3.41334822021489       -0.67834454164181
C           25.78589662401843        4.87112298725685       -0.94698936398630
C           25.43254028625930        5.78549420483541        0.04391863842878
C           25.44483130324609        7.13946205437306       -0.25252341491032
N           25.77427833511326        7.61576330804926       -1.44871893366943
C           26.10885359826929        6.74967834589473       -2.39961356684992
C           26.13259742899640        5.37847212493007       -2.19804764942545
C           24.58035377662806        2.78435181039400       -0.42679560596564
C           23.31439164318222        3.45474582764107       -0.45590619979011
C           22.36476797241667        2.50328995431545       -0.28990177068623
N           24.40229164768376        1.43626462154254       -0.22262436097016
C           23.05247551418006        1.25690254048690       -0.15993396448948
C           22.39082368976082        0.02922669910255       -0.03475008972514
C           23.06494846897732       -1.18961434459761        0.10992734996607
C           22.39138900822031       -2.44556765199855        0.21799587547678
C           23.34754129994855       -3.38135432882937        0.43086682509785
C           24.60247635249240       -2.69084558268428        0.45677225405160
N           24.41347796296489       -1.34832846064360        0.23116381847013
C           25.82126301734603       -3.30921561770729        0.69838028432728
C           25.82993298806321       -4.75747931192007        1.00661200040409
C           26.48233875105158       -5.66929039687573        0.17747093491382
C           26.45971263751208       -7.01579615692581        0.50461496130554
N           25.84474801241529       -7.48859132579256        1.58387447971650
C           25.22185473577510       -6.62591615947010        2.38022464971567
C           25.18414337060287       -5.26237548764793        2.13444806810831
C           27.03554078969091       -2.63341263919693        0.64556246769018
C           28.30556195197313       -3.24595040743096        0.90991997796708
C           29.25015890039200       -2.30678777976319        0.66904128521101
C           28.55563742949381       -1.11855133629493        0.27449819181298
N           27.20026607664498       -1.31956626892958        0.29877744469386
H           30.27490386066721        0.04386142477955       -0.13349510304772
H           30.28841480370278        2.50979176707842       -0.92190152285790
H           28.39617072221219        4.40874231847714       -1.21907027060379
H           25.16551304077471        5.44175699294318        1.03605268070736
H           25.17816398619350        7.87220056895788        0.50344770770461
H           26.37014869856532        7.16970085643978       -3.36648979635309
H           26.40218747533312        4.70842846018139       -3.00561152161349
H           23.17982807743907        4.51365314152062       -0.60457947928677
H           21.29314216655389        2.61820784107256       -0.26443937177619
H           21.32454662744652       -2.57859196133175        0.13848459472469
H           23.22487581267366       -4.44541639508983        0.54994050818430
H           26.98603433923643       -5.33017609849458       -0.71983598234710
H           26.95698679557081       -7.74545200791468       -0.12770932152941
H           24.73013784784348       -7.04264777356845        3.25432301592460
H           24.67304422131304       -4.59470506796216        2.81770787218658
H           28.44354056985889       -4.26274348831095        1.23979999028611
H           30.32234659434773       -2.39086206407878        0.74818844703653
C           18.41960940019558       -0.01321824615699       -0.04834299390600
C           17.19587498966066       -0.03086203690890       -0.04252280889570
C           19.76602148090104        0.00103675483398       -0.04996353080141
C           20.98976328976246        0.01853042745285       -0.04769001072135
