192
 energy: -317.549420381142 gnorm: 0.000609414704 xtb: 6.5.1 (b24c23e)
C           20.31518037562274        0.04937555485636        0.07090402262853
C           20.92870378485469        1.22530761815800        0.48268410753561
C           20.28186092793565        2.41097775681408        0.93108841619251
C           21.24759982575978        3.33190251091625        1.22585033073682
C           22.51589464566229        2.74170317639238        0.95916528919163
N           22.27244112383248        1.46952457787905        0.52391125997618
C           23.78023743861210        3.31852648684247        1.12186118614062
C           23.81888065813776        4.73121787571551        1.57365836796308
C           23.27456258758119        5.71767327192330        0.84544954496165
C           23.28960066488149        7.15645808289346        1.29236816137328
N           24.26796441692379        7.36844011868015        2.36219705926734
C           24.64444933341269        6.33424132045908        3.17878111038638
C           24.48126572159618        5.04537212583563        2.83133189299790
C           24.99269398510113        2.66406780718073        0.89159235305644
C           26.29190999094308        3.29702444450762        1.02963188050196
C           27.21023926608401        2.35671067638940        0.72598761087901
N           25.14353532321957        1.37052227421868        0.49392571924782
C           26.47070222553098        1.15441097350206        0.39285784761124
C           27.10396327550226       -0.04957984575373        0.02359237906421
C           26.46402240359192       -1.24316450055617       -0.36158466791969
C           27.10394934798077       -2.45787306489062       -0.72420622031888
C           26.13349211421257       -3.36678128642359       -1.04372360515173
C           24.86974898347092       -2.73246068553373       -0.89105446268198
N           25.12185553656049       -1.45212422696385       -0.47224978206551
C           23.60638273453418       -3.29866235051091       -1.09361957557959
C           23.57356847646236       -4.70494025685344       -1.56206490282241
C           22.98760777235902       -5.67268374013246       -0.84096415451689
C           22.92629708823212       -7.10405789557132       -1.30606526420667
N           23.88980202596946       -7.35360643676263       -2.38172923920832
C           24.31107039983880       -6.32946188588376       -3.18964839077076
C           24.21454305587817       -5.03822683407762       -2.82661629472337
C           22.39217606019510       -2.63631928116762       -0.88280145632315
C           21.08512922108217       -3.21680347409241       -1.14842869372664
C           20.17467006787306       -2.28030003372739       -0.81305513451319
C           20.92413657008235       -1.12330698213376       -0.35740750941476
N           22.25541258673506       -1.37017394998002       -0.42139135189379
H           19.22981617220002        0.05834216771847        0.08350836959738
H           19.21338849440096        2.52913116061926        1.01764689486798
H           21.10127771378997        4.33072395622980        1.60384537240542
H           22.99468471195090        0.80379988925903        0.27013590455286
H           22.78413333892820        5.52495007846625       -0.10169416167462
H           22.28225377424723        7.46118501602475        1.63339529676380
H           23.55861886258013        7.81083833563693        0.45223435368360
H           24.21249454508046        8.28041275691466        2.79193381894916
H           25.15864749112171        6.63506245646406        4.08598836945060
H           24.82935422642697        4.24204909126598        3.46484009399170
H           26.45592410860940        4.32408854345568        1.31298971545345
H           28.28488170262290        2.44459080423809        0.71270857155181
H           28.17152214835781       -2.60815234830923       -0.73283141622986
H           26.27639003863560       -4.38938378039180       -1.35297707165160
H           24.40272274008113       -0.76704127706242       -0.26451048516588
H           22.51270986929317       -5.46671871697267        0.11115084804196
H           21.90355653840906       -7.35054817949860       -1.64798205385323
H           23.16260846764126       -7.78247945597768       -0.47533796899183
H           23.78078882381203       -8.25443767416910       -2.82486058232358
H           24.80379824630563       -6.64473490939269       -4.10388285288021
H           24.59551414168658       -4.24649089718675       -3.45599395451809
H           20.91211862721594       -4.20226045445049       -1.54998848752446
H           19.09847666026189       -2.33404424856381       -0.86830849217561
C           64.25692149529726       -0.08149250265971        0.04312442988507
C           63.64601829811325       -1.29759155287610       -0.23386751960379
C           64.29515766207648       -2.54323798966381       -0.46248395982570
C           63.33220838797481       -3.48099875156110       -0.70932913567943
C           62.06350704452547       -2.83688324572672       -0.64898909131121
N           62.30370831379454       -1.52560082860136       -0.34879196247277
C           60.80135664364821       -3.41102957434489       -0.83684557123129
C           60.76656857123850       -4.85049072086572       -1.19439593978122
C           61.33615479047321       -5.30953211985439       -2.31899665103441
C           61.32512859637392       -6.76867903073408       -2.69424022186036
N           60.32233745828526       -7.50603388856691       -1.92135497612090
C           59.91847940864079       -7.05420906519996       -0.69216830275962
C           60.07907752320909       -5.77613382551576       -0.30568192153555
C           59.58765950513573       -2.72996052812474       -0.71511515511269
C           58.29180500676886       -3.33728712729514       -0.95934182531058
C           57.37124795535753       -2.37454022324413       -0.74617040964179
N           59.43296887075181       -1.41972432601545       -0.37836029165792
C           58.10613468106779       -1.17887461075330       -0.38061017548421
C           57.46941853714470        0.04031096208032       -0.07244900392144
C           58.10592778529494        1.25451941234036        0.24873402132564
C           57.46207291712183        2.47760684987207        0.57441100153596
C           58.43016660538719        3.41475089413050        0.80789956470239
C           59.69636528632679        2.79348741665119        0.62512103553287
N           59.44797611522256        1.48706628862482        0.29383989883450
C           60.95807076190956        3.37860068239640        0.77733812712618
C           60.98654720889554        4.81888973772355        1.12839028244282
C           61.54870521805785        5.25430427227094        2.26597143926229
C           61.60381441320790        6.71362459985385        2.63530606460182
N           60.66515270318827        7.50059938836074        1.83067643202958
C           60.26917300348338        7.06200717687632        0.59397409472415
C           60.36810253612646        5.77415291962722        0.21960808562090
C           62.17399878432001        2.70401653310632        0.62408757782547
C           63.48013808173454        3.33578760397773        0.72686427721203
C           64.39277683607656        2.36338263129289        0.52689544742196
C           63.64567032084423        1.14137301592199        0.28893868478360
N           62.31367493724623        1.38581375453247        0.34559966578628
H           65.34205096649072       -0.09713373717559        0.06540865784751
H           65.36310954079229       -2.69054799552500       -0.43294507856566
H           63.48073791410877       -4.53009447777120       -0.90747187311859
H           61.58006289089405       -0.82483249903767       -0.22841139471815
H           61.84506795776048       -4.64978177513041       -3.01216211863252
H           62.32676884992985       -7.21143773037661       -2.53694088419419
H           61.08397796461256       -6.88356836876159       -3.75962738053689
H           60.37431284285584       -8.50789802201516       -2.03500845343214
H           59.38606299112588       -7.78460367398388       -0.09149651195609
H           59.71006937646378       -5.42457798942273        0.64724440738895
H           58.13137976332389       -4.35985102617099       -1.26046798267750
H           56.29800672374132       -2.43920431754022       -0.82824491262114
H           56.39355064196405        2.61192716736302        0.62514797673352
H           58.28415640655140        4.44541396226751        1.08751004473936
H           60.16930191439938        0.79493951523955        0.11985403134766
H           62.00744682634431        4.57292894439898        2.97293944362772
H           62.63178454117787        7.10116472761771        2.50602318235505
H           61.33807718222909        6.84648262300811        3.69280141533046
H           60.77640248475043        8.49876803128334        1.93515085559747
H           59.79399123628041        7.81622473059634       -0.02522033039188
H           60.00668025081210        5.43790913111145       -0.74187081338314
H           63.65097122232604        4.38394993899085        0.91267440017714
H           65.46917017032459        2.43733272498377        0.52418735182838
C           28.51008113936605       -0.07226161340408        0.03330057556271
C           29.73449844014488       -0.09102039126700        0.04289176134991
C           31.07758693170788       -0.10414715281445        0.05675855864206
C           32.30826198004348       -0.11202414020266        0.06354971501905
C           33.64676610770755       -0.11546794472651        0.06949285170951
C           34.87753918171949       -0.11512373396138        0.06994261812592
C           36.22059720425343       -0.11239875235117        0.06666678503111
C           37.44539249311840       -0.10675049588316        0.05738739961573
C           47.12781996209249        0.08412095291182       -0.02914904754183
C           48.35253589790084        0.08979228069488       -0.04562242721245
C           49.69554486067330        0.09340220235907       -0.06029784753749
C           50.92625512795581        0.09285457250153       -0.06954846116849
C           52.26474516991954        0.08983478039918       -0.07891577370226
C           53.49539856069434        0.08466459696246       -0.08592631424257
C           54.83863534647207        0.07208791632081       -0.08724957032541
C           56.06321816195429        0.05975025461643       -0.08250266906722
C           38.85056837901027       -0.09526058041547        0.04517097532347
C           39.49189067121125       -0.29360497779247        1.28311643734594
C           38.85906145195161       -0.48435464398254        2.53865639296718
C           39.83673033320881       -0.61430936614181        3.48686195024584
C           41.09637476461815       -0.51476273359157        2.83546100505966
N           40.83634958206444       -0.31786227753178        1.50507687185677
C           42.36227453408512       -0.57460198148838        3.42895797822981
C           42.39840540936638       -0.81457489512290        4.89356206117044
C           41.93215100303399       -1.95106994468836        5.43246150204730
C           42.01048147126165       -2.23511815490138        6.90953802029494
N           42.25343933920362       -1.00768441670037        7.67179884459338
C           42.87462029588784        0.06578468596698        7.08912247624668
C           42.95028024067957        0.22025416189844        5.75529704397027
C           43.58013049543848       -0.42903511330436        2.76273878592712
C           44.87226388135847       -0.55710665030163        3.41258067087701
C           45.80322560827563       -0.37803104209483        2.45269059920767
N           43.74750669483724       -0.18624988837151        1.43371728310838
C           45.07837934787683       -0.14588572778827        1.21900127274954
C           45.72262167687619        0.07476570572692       -0.01480099807790
C           45.08106413389002        0.27581983898058       -1.25225541489622
C           45.71370212375358        0.46943360215835       -2.50743956095257
C           44.73585367127809        0.60371158205095       -3.45486818652834
C           43.47639891520943        0.50316727117684       -2.80336338074857
N           43.73658216619802        0.30180217392143       -1.47371039164408
C           42.21052662714021        0.56537746670193       -3.39667677089825
C           42.17509785391627        0.81387284788658       -4.85991633316975
C           42.63955273702413        1.95501452525204       -5.39049115630275
C           42.56272137092902        2.24918201196597       -6.86562214207208
N           42.32120890189989        1.02692022494208       -7.63659517216633
C           41.70217139342769       -0.05196162410675       -7.06182317080226
C           41.62618696248733       -0.21616426955063       -5.72915067212133
C           40.99279607533350        0.41578657034015       -2.73139674000967
C           39.70060979929841        0.54262041659245       -3.38125787625749
C           38.76981684393051        0.35901330235666       -2.42208730602915
C           39.49485963728232        0.12637800411407       -1.18855221066557
N           40.82560242111500        0.16943977286791       -1.40289599928073
H           37.79179051669568       -0.51008515530004        2.68882880593272
H           39.70120951120035       -0.75710182067334        4.54647728543840
H           41.54671664125405       -0.19803200015283        0.79072494280942
H           41.54339422016640       -2.75587752371930        4.81939346710020
H           42.80752642676460       -2.97432643069913        7.11502982298197
H           41.06569780023084       -2.67165738569142        7.26083509728532
H           42.45750534919205       -1.16651751347967        8.64788788169270
H           43.22392306027015        0.82112262802856        7.78579685121258
H           43.37570291797670        1.11045476909303        5.31444779141068
H           45.02338991182647       -0.76920212917291        4.45880123943424
H           46.87754751886370       -0.40149267257120        2.54264590481687
H           46.78092730067681        0.49450832990774       -2.65799421973733
H           44.87109222653493        0.74981474520204       -4.51406584165332
H           43.02627109442601        0.18074447709483       -0.75950412072517
H           43.02608263026356        2.75625191352135       -4.77135095201423
H           41.76559928751912        2.98942343310810       -7.06694188161120
H           43.50772243160700        2.68862453476771       -7.21276566086581
H           42.11750648109719        1.19225336600837       -8.61166304748509
H           41.35470758915988       -0.80297562436759       -7.76406720478813
H           41.20249091478735       -1.11040748342143       -5.29489604827930
H           39.54928234518350        0.75657445442900       -4.42706918069240
H           37.69549406218660        0.38032953760359       -2.51239574034574
