177
 energy: -321.705701974776 gnorm: 0.000709096634 xtb: 6.5.1 (b24c23e)
Cu          36.29826898492986        0.04232390816898        0.01561524097080
C           32.88717644551340        0.02735874808219        0.06717555315016
C           33.51132796637359        1.24908834262861        0.26832319107443
C           32.82630053485868        2.49833686125938        0.43918146715993
C           33.77675135854514        3.44811420806609        0.62084269401155
C           35.05135264149535        2.78367972268825        0.57782654070628
N           34.85977162681892        1.45194352836379        0.34916948882199
C           36.29083344095482        3.40530128905348        0.74521299133701
C           36.29246391501428        4.85631770487478        1.05040742838727
C           35.67183510495060        5.34053981009526        2.20435275922534
C           35.67259902941076        6.69399802790967        2.49025024888314
C           36.29285539048652        7.59413972838006        1.61873670285598
C           36.29330770980451        8.98799301137046        1.90782538631232
N           36.29410882275081       10.11507226150814        2.13999004189084
C           36.91333257983320        7.11518509636749        0.46102058364246
C           36.91379945363899        5.75983098141151        0.18480571538941
C           37.52999045871119        2.76711559623104        0.65023383415306
C           38.79220274339380        3.39166239218139        0.92377425333032
C           39.75058949743012        2.45349008573697        0.71833908806805
N           37.73993216407671        1.45940870338383        0.30057370031820
C           39.08658728943271        1.25037240350034        0.31976715643012
C           39.74355174914796        0.05525356445925       -0.02817197323888
C           39.08591801686920       -1.14381433910866       -0.36161205812511
C           39.74834133416654       -2.34224316621362       -0.77643531398805
C           38.79234887696231       -3.28757237370115       -0.95804693899306
C           37.53291613575580       -2.67195800341341       -0.65395720791861
N           37.74173333866143       -1.36250814369532       -0.30974861854234
C           36.29709595216771       -3.31977990660317       -0.71796982581941
C           36.30238003718685       -4.77072320792180       -1.02467600815227
C           35.66625072703820       -5.25747907619103       -2.16892867113096
C           35.67098510911208       -6.61070603627162       -2.45616328719068
C           36.31032472617431       -7.50771763239602       -1.59528560209389
C           36.31695016067052       -8.90114435060579       -1.88644339510333
N           36.33024815327378      -10.02745057049552       -2.12170548220938
C           36.94539457426814       -7.02612240697455       -0.44661131709333
C           36.94252176652528       -5.67093597031837       -0.16954737331314
C           35.05772949544923       -2.70888883219142       -0.51575630453705
C           33.78823646357796       -3.38421145722391       -0.52437473559344
C           32.83559884109378       -2.44352178733153       -0.30985966927813
C           33.51476939682337       -1.18889140892908       -0.15499077698670
N           34.86180204203331       -1.37967549905699       -0.27703430569847
H           31.80228654052665        0.02289879138914        0.08423831047502
H           31.75502857492718        2.62020526718753        0.41025558337179
H           33.63454183881247        4.50766010138928        0.76023234846385
H           35.20069084175120        4.64450348156624        2.88919050110849
H           35.19419825363264        7.06126866124579        3.39063471513312
H           37.39200876628116        7.81041930804287       -0.21866443927285
H           37.38589743917257        5.39326812025183       -0.71976593937705
H           38.92427604000562        4.41036181476118        1.25038760182638
H           40.81550456568394        2.55908995706666        0.83693703292177
H           40.81044954362456       -2.43984227876770       -0.92183836634926
H           38.92373175873024       -4.30577090529217       -1.28646033555499
H           35.17971257874628       -4.56364645547810       -2.84518733357476
H           35.18096656524303       -6.98017069773044       -3.34937702850758
H           37.43818206300077       -7.71911991337141        0.22523094875921
H           37.42697554783117       -5.30195018926094        0.72747407168350
H           33.65157944795720       -4.44431148200250       -0.66525010583653
H           31.76678277681552       -2.57489302157151       -0.24919605569364
Cu          58.14388819028937       -0.02510129649524        0.03461038481260
C           61.55080664862897       -0.03329458158114        0.08511832488019
C           60.91977479395997       -1.24162102824902        0.33932352969379
C           61.59914125705411       -2.48237101628334        0.58158915547258
C           60.64358682592936       -3.42394842196722        0.77819424499624
C           59.37074925896611       -2.76403847097000        0.66656973024352
N           59.56966444256236       -1.44105497414668        0.39618541267551
C           58.12816815101203       -3.39082019460266        0.78524150238538
C           58.12036855041853       -4.83428058216143        1.12776737801866
C           58.64709166958190       -5.27216725172913        2.34503336036739
C           58.63153329828836       -6.61480219501511        2.67768271644801
C           58.09197721604652       -7.55021501947123        1.78976649869369
C           58.07212384338509       -8.93262279750499        2.12894629961053
N           58.05415174371136      -10.04925734153000        2.40647446210214
C           57.57017612548622       -7.11788473079585        0.56690482661555
C           57.58295571682452       -5.77271301733880        0.24404543185597
C           56.89203381069196       -2.76354222926298        0.61526896803690
C           55.61688424916207       -3.39873567164879        0.79370594378309
C           54.66757626573776       -2.45592542765144        0.56710855797819
N           56.69905333358101       -1.44708511038849        0.29144938593288
C           55.35404597661260       -1.23766415848032        0.25690581653973
C           54.71568157704617       -0.01617136087534       -0.01320288729175
C           55.36814375911685        1.20153198598424       -0.26676666269573
C           54.69702110359891        2.42341235627105       -0.59578998127095
C           55.65711257625042        3.36151837049570       -0.79461778530235
C           56.92333069928757        2.71973104978131       -0.58016330778853
N           56.71460815604883        1.40392875736238       -0.26356707832022
C           58.16675409698952        3.34149335012506       -0.71233691109132
C           58.17648298473893        4.78675401170562       -1.04684633108564
C           58.74345793526470        5.22985333581086       -2.24397492341805
C           58.74929582948849        6.57522187943838       -2.56557207449510
C           58.19084513228437        7.50807236657413       -1.68662941224517
C           58.19642846210446        8.89346272031226       -2.01398319649037
N           58.20172519103288       10.01316297106007       -2.27972660834864
C           57.62650377665425        7.07020846415143       -0.48486791666686
C           57.61825472523826        5.72237830008591       -0.17310372959198
C           59.40231827251756        2.70839090970566       -0.55880713904179
C           60.68107742812532        3.36222712948971       -0.63162799844456
C           61.62580510053843        2.41576826428323       -0.40808224973709
C           60.93355590974542        1.17809802164207       -0.18758900973410
N           59.58670808515087        1.38409871966205       -0.28460887991833
H           62.63577641635921       -0.03586688396423        0.10162020401559
H           62.67075289443640       -2.60464982745608        0.58751046167619
H           60.78038324282854       -4.47630719488399        0.96854264122542
H           59.05545245138345       -4.54799956266373        3.04096065627533
H           59.03453682099789       -6.94595737498322        3.62763441518956
H           57.15616946531929       -7.84109173636516       -0.12592816964247
H           57.18622716700331       -5.44228606729811       -0.70929094509289
H           55.47030827929039       -4.42957063940438        1.07279599291373
H           53.59591876172126       -2.56441876377900        0.61622339516346
H           53.62784037720537        2.53736805904419       -0.67596052260038
H           55.52390611498154        4.39317419259749       -1.07733023779887
H           59.16719625381189        4.50790382352588       -2.93296352908795
H           59.18449048887866        6.91084122776637       -3.49961510903121
H           57.19676617710504        7.79108603446764        0.20077746246741
H           57.18903841274958        5.38751365146159        0.76448812143983
H           60.82867124619450        4.41409602433394       -0.81647402704822
H           62.69766968269612        2.53302624265268       -0.38193744129671
C           41.15569563545675        0.05807379686778       -0.04205662285692
C           42.37424881302677        0.05647730986900       -0.05154673101586
C           52.08881447258964        0.00015002106238       -0.04029493040178
C           53.30473775973264       -0.00988285035796       -0.02864602090567
Cu          47.23884289707988        0.03526251416013       -0.06446449915717
C           43.78611316885159        0.05246196094726       -0.05896728746469
C           44.43779450817682       -1.14597643139591       -0.40776516280275
C           43.76836428045390       -2.37596606371011       -0.70217252404251
C           44.72166475170435       -3.28226679189774       -1.03487861613688
C           45.98576051116776       -2.61049749606986       -0.94403053426428
N           45.78204920850560       -1.31529498514985       -0.54896844131461
C           47.22175729272716       -3.20774597578192       -1.20229106425537
C           47.20714249071679       -4.59691891469501       -1.72234466723818
C           46.60096647495084       -4.88108168512180       -2.94843028064602
C           46.59126213731507       -6.17083151631194       -3.44800953917551
C           47.18444638955955       -7.20769556924500       -2.72154160861850
C           47.17407155096488       -8.53684129095439       -3.23121816668274
N           47.16385760984476       -9.60981714840110       -3.64677419792712
C           47.78733095349165       -6.92961432578176       -1.49123345132412
C           47.79987447814263       -5.63581191985034       -1.00142947407331
C           48.46775776973558       -2.60575396785554       -1.01670770783947
C           49.73116365355217       -3.20771260578202       -1.33626816190610
C           50.69350823146885       -2.30978619675389       -1.00498803592626
N           48.67880242651248       -1.35095394031931       -0.51290349627088
C           50.02479727277822       -1.15124213499801       -0.49290223880093
C           50.67841593696086        0.01112819632233       -0.05102370118903
C           50.03686748301030        1.18406612802772        0.38052628853743
C           50.71715620049054        2.33583376858218        0.89250558817705
C           49.76484298272792        3.24974801032935        1.20845664398931
C           48.49573494341902        2.66371276324959        0.88164289303283
N           48.69355575246736        1.40313371281174        0.38704424748402
C           47.25683892195534        3.28377366348627        1.05713451514863
C           47.26168741057268        4.67743867810210        1.56504516030706
C           46.65620039267262        4.98349353770637        2.78613062648175
C           46.67106775916739        6.27704974562108        3.27579348320470
C           47.28898505537983        7.29583952172811        2.54447243893687
C           47.30823188001465        8.62782879252932        3.04640798756077
N           47.32527924932744        9.70405609764017        3.45343246620616
C           47.88964941710941        6.99634544177134        1.31806541229676
C           47.87724793327437        5.69892411719294        0.83813579038957
C           46.01377734595692        2.69956544565142        0.80274925988512
C           44.75650493826478        3.38444550975209        0.89245930262511
C           43.79287725593121        2.48484347794251        0.57096247909788
C           44.44965478155572        1.24656066531893        0.28221780983905
N           45.79596135389956        1.40381392671969        0.41705962619626
H           42.70389624328612       -2.52659525519482       -0.64777074428136
H           44.58533180080160       -4.31849013689660       -1.29857938499414
H           46.14906935207603       -4.07724284557945       -3.51864225429236
H           46.12594829383460       -6.38208630040294       -4.40368606654898
H           48.24365995211727       -7.73198371280399       -0.92343251411893
H           48.25889320722843       -5.42598356705761       -0.04191291907735
H           49.86166408884890       -4.18499521154498       -1.77201318840393
H           51.76210148349140       -2.40964810403531       -1.10881659168372
H           51.78601080914807        2.42119105282933        1.00588300526728
H           49.90558804022763        4.22770095385352        1.63942674427370
H           46.18648183066279        4.19352185484061        3.36128156821822
H           46.20687581795426        6.50504355443558        4.22816307553249
H           48.36479574027728        7.78474561945066        0.74614629169117
H           48.33561536113009        5.47228632658997       -0.11787006326585
H           44.63142083267675        4.42399547151837        1.14864029050540
H           42.72939679427026        2.64497464992379        0.51932096647002
