316
 energy: -554.284013628827 gnorm: 0.000799801955 xtb: 6.5.1 (b24c23e)
C           56.20074209782079        0.08560683335623        0.09002437890946
C           56.80708672711597        1.33349792925415        0.02782225775823
C           56.15343380231722        2.59776403469778        0.01966194499779
C           57.11210303106588        3.56698819566603       -0.07134167135823
C           58.38246180311825        2.92532089277040       -0.13054999977671
N           58.14816131763395        1.58198445065151       -0.05602598812328
C           59.64314875074114        3.52648696655333       -0.22325441919816
C           59.66887614898634        5.00479287680786       -0.32861590888457
C           60.31766850907983        5.77371276405987        0.64063826003272
C           60.34161438710691        7.15348785013563        0.54616249924595
C           59.71720331309622        7.79360205315203       -0.52859087724360
C           59.74278243645821        9.21319186480475       -0.63108847586548
N           59.76270609978535       10.36088892329864       -0.71269687093097
C           59.06773990074992        7.02891344439955       -1.50219410604624
C           59.04327063220911        5.64971421982288       -1.39833139830995
C           60.86081971649886        2.84110668892649       -0.22376786564212
C           62.15401951511210        3.48346131983865       -0.37798725811566
C           63.07774931066415        2.50229865368395       -0.31628870003322
N           61.01982252415793        1.49511578899343       -0.09784993914815
C           62.34733137914333        1.26224877831754       -0.13810030685263
C           62.98854401751532        0.01274275863542       -0.01831015282255
C           62.35664550988001       -1.23998605118495        0.09546462210297
C           63.00476821216022       -2.49745874275757        0.21996444295996
C           62.04083929254029       -3.46591056877784        0.26889971370325
C           60.77304129120095       -2.82816643488037        0.16986704977934
N           61.01572934783560       -1.48341633240415        0.07758945891466
C           59.51251794180446       -3.43506288771676        0.19176091841252
C           59.48720215526986       -4.91545650690120        0.25153543877232
C           58.87921074281084       -5.57398394892257        1.32309121811530
C           58.85562138808061       -6.95592362252309        1.37930578505966
C           59.43819626295239       -7.70951099841258        0.35587967290066
C           59.41297297205161       -9.13183776565489        0.40787523794384
N           59.39286276387818      -10.28170577887800        0.44882257477099
C           60.04638420891580       -7.05560299836372       -0.71981572302658
C           60.07169148145542       -5.67342721835671       -0.76627051484363
C           58.29299843682668       -2.75003594449262        0.16011385637186
C           56.98944301474416       -3.39606743092665        0.14218677195756
C           56.07350887908876       -2.40723190965501        0.12208175683336
C           56.81606968535667       -1.15894228794649        0.11157495835117
N           58.14933371354820       -1.40433058364422        0.12607858062545
H           55.11580526750003        0.09343477719867        0.11802528736525
H           55.08562074831091        2.73430175888072        0.08136115263492
H           56.95913299145474        4.63388451112681       -0.08640070084950
H           58.87435315072357        0.87358986625153       -0.06032700106213
H           60.79198899320886        5.28193722593265        1.48233549576402
H           60.84269293566729        7.74322590033864        1.30481565673052
H           58.58604705786227        7.52116116561538       -2.33893677096652
H           58.55096888541686        5.06014456916465       -2.16358923691917
H           62.31184669303761        4.53923640959369       -0.52731275935522
H           64.15033330004341        2.58219162403504       -0.39174100344226
H           64.07307916493727       -2.63335510344943        0.26853806919651
H           62.19121881031983       -4.52776248198898        0.37578611496506
H           60.29146086601774       -0.77587482648800        0.01085441430635
H           58.43804610864419       -4.99355360186856        2.12542444034209
H           58.38739248026786       -7.45942311079470        2.21696690589266
H           60.49552351601447       -7.63618420334138       -1.51710758678722
H           60.53219622987009       -5.17053935902454       -1.60924939228641
H           56.82271427416354       -4.46114714952300        0.13342957862163
H           54.99765742577491       -2.48323670009215        0.10435087627748
C          127.06639872560049       -0.08453097847067        0.06183434010752
C          126.45559267129919       -1.29287732721720        0.37106277757431
C          127.10557366842242       -2.51067713419154        0.71770011303620
C          126.14251039573092       -3.45546129060689        0.93369749049490
C          124.87289625672011       -2.84725246142908        0.71667381014015
N          125.11238390932796       -1.54306716969839        0.38995089215493
C          123.60868650941022       -3.43662893463226        0.83328463587596
C          123.57577368862680       -4.87937380121353        1.17232293197960
C          122.95057123884614       -5.31890648137061        2.34170135150356
C          122.91849994724171       -6.66439996715532        2.66100595356382
C          123.51073914815315       -7.60143870750201        1.80898564100898
C          123.47650064380571       -8.98743614984879        2.13178786780662
N          123.44856308527584      -10.10768761555966        2.39295157877784
C          124.13680177340190       -7.16712134493667        0.63687195342387
C          124.16970153595538       -5.81940921438202        0.32672322795801
C          122.39332440883629       -2.77154087530577        0.65232679295758
C          121.09562201132090       -3.41941229985572        0.72247741460154
C          120.17626623268494       -2.45878724234140        0.49538863036133
N          122.24063960376579       -1.44943095184233        0.36625796911878
C          120.91352094840003       -1.22950477117688        0.27502717026666
C          120.27787261638252       -0.00083398601448        0.00380830512789
C          120.91471289366918        1.22382048916628       -0.27206233064069
C          120.27133380492332        2.46475275231066       -0.52289806288192
C          121.23906962414374        3.40296627589976       -0.75235547933982
C          122.50459109172610        2.76012357680197       -0.65682101256220
N          122.25655003486037        1.44686336405995       -0.35699772640143
C          123.76792673327603        3.34284770825886       -0.80480022885663
C          123.80189100832379        4.78226647508322       -1.15534310138438
C          124.41422497830327        5.70442342554108       -0.30300762959285
C          124.44559301173841        7.04925520739713       -0.62496260877890
C          123.86661363722362        7.49887557521746       -1.81548179696067
C          123.89922160545049        8.88181407456790       -2.15128689701894
N          123.92473864825790        9.99962956146443       -2.42336819833938
C          123.25513616090966        6.57997581869303       -2.67355055728659
C          123.22214021824587        5.23736787189226       -2.34214878386345
C          124.98437132682166        2.66988184779591       -0.64631742881804
C          126.28990686323795        3.27721749653498       -0.85539992468821
C          127.20213456499610        2.31592956196275       -0.60874166365210
C          126.45526710888350        1.11958606901076       -0.26138079547866
N          125.12300912269555        1.36785319666752       -0.30276248370319
H          128.15163547647265       -0.09242530197803        0.07361120062953
H          128.17414520290009       -2.63302670325298        0.79424131176124
H          126.29220288062579       -4.48178750656413        1.22720020259424
H          124.38806924498203       -0.86024987470316        0.19406820595772
H          122.50100157101025       -4.59428354890180        3.01109433451672
H          122.43576068244677       -6.99700266925298        3.57246475172761
H          124.59355233087472       -7.89079981926564       -0.02806364603322
H          124.64343288927851       -5.48878428891538       -0.59078803596951
H          120.93183686171675       -4.46894891058557        0.90549515837648
H          119.10235113280289       -2.54934890582542        0.46434624031478
H          119.20343941117984        2.61215380724765       -0.51970394398866
H          121.09245032709430        4.45060501932840       -0.95851012577007
H          122.97825940146608        0.74854588397173       -0.21152394072184
H          124.85272264275166        5.36174854734774        0.62735912870130
H          124.91694817453946        7.75920032736766        0.04453992526279
H          122.80927819023137        6.92397972696218       -3.59947364842056
H          122.75927063901284        4.52652270039770       -3.01741652342341
H          126.46001202930910        4.29648516235552       -1.16270493845531
H          128.27796395218110        2.37693335650840       -0.65784936888368
C           68.19117670235420       -0.03902819273367       -0.00560147351364
C           66.96287455498414       -0.02589233286455       -0.00763882359170
C           65.61846681787260       -0.01373467985400       -0.01132618084452
C           64.39466253629472        0.00095865892479       -0.01721788676629
C           69.53544618205059       -0.04550495130003       -0.00809631455621
C           70.75947049795941       -0.05495988450598       -0.00888298877584
C           84.22772940217003        0.01033656291697        0.01204167848404
C           82.99875001071922        0.00762822511656        0.00988340926397
C           81.65537423919955       -0.00052760413827        0.00490860164742
C           80.43086146163463       -0.00989498920333       -0.00413208081466
C           85.57112309330267        0.01080156549859        0.01026284937058
C           86.79571072052397        0.00541827431212        0.00864749471682
C          100.26675637954911       -0.00285533453167        0.00031833782102
C           99.03778284114719       -0.00145158050312       -0.00053640146654
C           97.69439179724348       -0.00261346677942       -0.00295119045076
C           96.46981872266963       -0.00501661759605       -0.00728943941139
C          101.61016664567552       -0.00583433799681       -0.00190629418870
C          102.83472019442256       -0.01016842959936       -0.00543432317992
C          116.30358498416768        0.03010005963775        0.00117144548933
C          115.07526810321355        0.02892364084979        0.00345370940211
C          113.73105841936317        0.02440131629969       -0.00068677168671
C          112.50696896111508        0.01742240058341       -0.00783191616465
C          117.64795506351176        0.02595069152392        0.00002479314063
C          118.87184893397773        0.01541303764489        0.00130359263081
C           72.16456295571113       -0.05962661085029       -0.01794723039971
C           72.78675364080225        0.84764744299237       -0.89706168078482
C           72.13352202171397        1.77046937022912       -1.75416719988881
C           73.09400461270963        2.43618089466539       -2.46554664433377
C           74.36226508562157        1.93263099596380       -2.06711115574158
N           74.12629198618671        0.98389814503623       -1.10901581437255
C           75.61910487621067        2.33183434588020       -2.53915541110416
C           75.62310021356396        3.34372310998909       -3.62343488620643
C           75.01816748046892        3.06557180981518       -4.85147823277213
C           75.02280106561379        4.00360048038056       -5.86812910416500
C           75.63029521082706        5.24721800039610       -5.67118681029955
C           75.63417916938272        6.21599686699060       -6.71430149513431
N           75.63725397172691        6.99897431255661       -7.55765849348600
C           76.23346166694944        5.53213729692283       -4.44254304039407
C           76.23042494737028        4.58697082954452       -3.43247868618535
C           76.84814036329608        1.85766236392364       -2.07790696827162
C           78.13025305528571        2.25876574788235       -2.62943240432974
C           79.07292885962650        1.60496383316163       -1.91972926083208
N           77.03263972534999        0.95926520100907       -1.07137594391625
C           78.36500684950445        0.79694483118057       -0.94638733588766
C           79.02684203891785       -0.02544699466226       -0.01188391117274
C           78.40414768152912       -0.87761929919214        0.92098861650934
C           79.05672937632229       -1.69475337154993        1.87983120571072
C           78.09623520046681       -2.38323521417226        2.56917143914229
C           76.82851978558789       -2.01136858078384        2.04416268820075
N           77.06518418433228       -1.09091999413991        1.05852524654523
C           75.57194681005653       -2.47248963963174        2.45564777889064
C           75.56544291696346       -3.50737427248266        3.51794333133618
C           76.17873876080844       -4.74440207785944        3.30622561050253
C           76.17189380255179       -5.71276583906412        4.29411194030654
C           75.55368698738666       -5.45717887065594        5.52166523955958
C           75.54828842634336       -6.44980124023243        6.54209927969307
N           75.54402745955596       -7.25204798343850        7.36701503237430
C           74.94132422533336       -4.21942965367535        5.73981648324535
C           74.94660998240843       -3.25812964751272        4.74520677660657
C           74.34310820846109       -2.04024519051836        1.95300779345692
C           73.06204616679776       -2.58566614514575        2.36581688780396
C           72.11919580972788       -1.90992497990439        1.67715349789547
C           72.82596405849003       -0.96272499788440        0.83787617967234
N           74.15857931918070       -1.07205031520580        1.01433425329707
H           71.06536048579889        1.90414158326456       -1.81058029813524
H           72.93947263984042        3.21468315490197       -3.19459996665606
H           74.84968441122633        0.46109698427792       -0.62672568358539
H           74.55724738260162        2.09753629015458       -5.01276188449619
H           74.55757301000341        3.77757157936911       -6.82045082049792
H           76.70176033438302        6.49664591292999       -4.28505557393453
H           76.68864895954808        4.81596674796006       -2.47705743625138
H           78.26852156384855        2.93730756489273       -3.45543170913919
H           80.14482551381542        1.64073438932310       -2.03040042626816
H           80.12445566316990       -1.74044118287591        2.02089984870378
H           78.25036858879675       -3.07968590745848        3.37704656706473
H           76.34213581072902       -0.63248009924416        0.51423607862009
H           76.64795175237944       -4.95159322536106        2.35100967115368
H           76.64383873764390       -6.67260525440331        4.11973427475134
H           74.46428107324529       -4.01651208400751        6.69147103670241
H           74.48110737651989       -2.29519538836221        4.92219027162147
H           72.92478464628348       -3.38559564283506        3.07511097297536
H           71.04790063564160       -2.02746927086946        1.70887088193404
C           88.19975038215806       -0.00012855124959        0.00125615651745
C           88.82574627145276        0.88762869881750       -0.89563813286924
C           88.17630591890538        1.80033051775692       -1.76610201940134
C           89.13990684584229        2.45664248240491       -2.48216447330233
C           90.40629138872950        1.95625465606653       -2.07406988012794
N           90.16588900802074        1.01845238604052       -1.10602389549088
C           91.66511235638303        2.34989549417176       -2.54536489565526
C           91.67429485404982        3.35754721208052       -3.63364479068196
C           91.07320983264026        3.07703673710020       -4.86297131177158
C           91.08268014386096        4.01254594430315       -5.88196369127868
C           91.69141462870355        5.25573744390026       -5.68619909581976
C           91.69976369008172        6.22205937972634       -6.73157243873140
N           91.70519179872329        7.00257587510618       -7.57709118397867
C           92.29130209549282        5.54275606203792       -4.45645039745968
C           92.28331117132684        4.60020699016950       -3.44401318085186
C           92.89262156300421        1.87530002784623       -2.08012912168315
C           94.17580184386031        2.26900186671920       -2.63448275902662
C           95.11656629114488        1.61371634648236       -1.92358169270658
N           93.07450842309093        0.98095347250392       -1.06961399425453
C           94.40645677683813        0.81295283767345       -0.94601497233409
C           95.06575049953571       -0.00974972097291       -0.01005942917972
C           94.43984875627227       -0.85200756733236        0.92976858716425
C           95.08959317400793       -1.67065837499903        1.88903972924826
C           94.12595033994407       -2.34458247363348        2.58848639236219
C           92.85920346609348       -1.96151981532261        2.06959815291936
N           93.09951024492048       -1.05008674281505        1.07666187077369
C           91.60024396524146       -2.40442093865291        2.49437617614563
C           91.59089673769313       -3.43229538900079        3.56363813524327
C           92.18425457454647       -4.67901308748151        3.35202348211248
C           92.17411280277463       -5.64205278665451        4.34504497624603
C           91.57265227224592       -5.37123278911220        5.57763317039853
C           91.56328626606458       -6.35877365404222        6.60297846888326
N           91.55549266074075       -7.15706524355617        7.43171493115716
C           90.98078949630089       -4.12357218425794        5.79579347203642
C           90.98922078204774       -3.16754517382771        4.79607679892819
C           90.37263302705080       -1.96305009828345        1.99786446932270
C           89.08903311594219       -2.48864851768730        2.42791807573049
C           88.14834320183392       -1.81443798005153        1.73484998281767
C           88.85887411336851       -0.88815232102504        0.87560254792518
N           90.19096723750870       -1.00620460914581        1.04627461455400
H           87.10851735463530        1.93502225979531       -1.82697975463978
H           88.98843864470406        3.22687968871837       -3.22056711544297
H           90.88695002727857        0.50050612289649       -0.61506817986138
H           90.61152073187425        2.10924230599187       -5.02343177249975
H           90.62021355027764        3.78485063023746       -6.83522424429291
H           92.76091508236615        6.50678581881311       -4.29994759749090
H           92.73905011898314        4.83072898420164       -2.48776517140084
H           94.31604215310000        2.94357890568029       -3.46338307567497
H           96.18845410313820        1.64430878100811       -2.03584087721599
H           96.15763426869231       -1.72731973200734        2.02355940226155
H           94.27757926813948       -3.03812142626717        3.39932829012942
H           92.37825870204736       -0.58729135430526        0.53365728507268
H           92.64031729355779       -4.89773038258810        2.39301491552974
H           92.63036980353178       -6.60946460670685        4.17077761103919
H           90.51698065404861       -3.90886731714232        6.75138969467724
H           90.53956308359157       -2.19707618211883        4.97284293241888
H           88.94847935939039       -3.27564763402223        3.15088221048832
H           87.07619939006194       -1.92086386155383        1.77562555578414
C          104.23886611390746       -0.01208949295181       -0.01189407331647
C          104.86231611173666        0.88023577008745       -0.90593560379454
C          104.20972837789260        1.79114733750059       -1.77617795575160
C          105.17122864999871        2.45631463189201       -2.48666378801132
C          106.43966981216829        1.96374339619050       -2.07516287071849
N          106.20218516019918        1.02049914921367       -1.11153110117782
C          107.69734301662338        2.37025223579489       -2.53757876147919
C          107.70488374913000        3.38498771163898       -3.61930092310426
C          107.11596720071869        3.10666633517744       -4.85496086032342
C          107.12519626390664        4.04842190306966       -5.86820550159974
C          107.72128058276783        5.29573080178903       -5.66012666767910
C          107.73002630385946        6.26815208737202       -6.69980498327676
N          107.73702638742273        7.05378402386909       -7.54046851296062
C          108.30854863072531        5.58069971266295       -4.42381097239610
C          108.30102377846170        4.63191661502644       -3.41721344165141
C          108.92617748695139        1.90196014559026       -2.06877165738337
C          110.20929384657782        2.31062641381989       -2.61244034588724
C          111.15105137746208        1.65478969040067       -1.90348767035849
N          109.10895304926581        0.99940410289129       -1.06632987589369
C          110.44173997068091        0.83860283230426       -0.93810557365964
C          111.10194649671327        0.00614142609633       -0.01244053169992
C          110.47909213027097       -0.85046144906278        0.91568520247417
C          111.13165869397629       -1.67602248815448        1.86729616131396
C          110.17026240028846       -2.35644280063253        2.56333677660822
C          108.90197321104124       -1.97102667462368        2.04973322237842
N          109.13917601699724       -1.05249143069793        1.06282065575543
C          107.64403674682396       -2.41628696767252        2.47520157174214
C          107.63709258576485       -3.44589134027223        3.54285801900946
C          108.23085759748886       -4.69206314836506        3.32925907576516
C          108.22426910505719       -5.65538106590958        4.32207385604516
C          107.62591179629310       -5.38547183290999        5.55638172097122
C          107.62044437361293       -6.37314815570921        6.58160918411185
N          107.61726325791312       -7.17189146320939        7.40992211311589
C          107.03317622287763       -4.13854625000828        5.77634188147044
C          107.03813345390790       -3.18224577829484        4.77687904442307
C          106.41558247238265       -1.97422858314609        1.98149613249279
C          105.13288391521176       -2.50245384246713        2.41115404210972
C          104.19098911010670       -1.82879593655082        1.71923735238850
C          104.89985046520189       -0.89974056902578        0.86144932670345
N          106.23209323491213       -1.01569670124761        1.03190730102246
H          103.14125885000477        1.91861951234832       -1.84052776146121
H          105.01726228659066        3.22765763334006       -3.22340456548487
H          106.92525348561472        0.50613726573492       -0.61974300203013
H          106.66428996276069        2.13577709013780       -5.02492627682472
H          106.67252631333714        3.82239300874745       -6.82655268594586
H          108.76818872064908        6.54792892782847       -4.25772589714330
H          108.74719365611553        4.86056548613386       -2.45601467758842
H          110.34891947415743        2.99474436731017       -3.43358588499633
H          112.22323974788726        1.69398376542396       -2.01000703045072
H          112.20000417512381       -1.73196702760470        1.99969725678083
H          110.32435504190528       -3.05579477780649        3.36870261737641
H          108.41606847958744       -0.58634052879029        0.52517803898601
H          108.68463774322093       -4.91013573076335        2.36902841899411
H          108.68105923646698       -6.62228441724827        4.14638375393878
H          106.57161443807976       -3.92456424163073        6.73319196882321
H          106.58798831952888       -2.21226737823637        4.95511184433361
H          104.99387033378044       -3.29083104884966        3.13292618740698
H          103.11902904106242       -1.93710700803890        1.75996639359076
