114
 energy: -197.516585307019 gnorm: 0.000512527583 xtb: 6.5.1 (b24c23e)
Zn          11.07005529316459       -0.03400176501204       -0.00508744971020
C            7.65978050695853       -0.06160087260901       -0.00766908991551
C            8.28775928848274       -1.29560545100154        0.11030276302822
C            7.61212810493222       -2.55382615368907        0.26336493921548
C            8.56977838429893       -3.50869778590746        0.36721931213466
C            9.84347061853607       -2.84572618154604        0.26906099862321
N            9.63691907363972       -1.50567647981189        0.11984491733487
C           11.09437392262539       -3.46972120799689        0.34970580577524
C           11.10605400312153       -4.94371850680667        0.51234427163817
C           11.65852474104408       -5.54220268663466        1.64445728319213
C           11.64444660273571       -6.92347921170789        1.75490029015777
N           11.12932051864448       -7.71966274345140        0.82326847316585
C           10.60277211181993       -7.15783664343073       -0.26007858034543
C           10.56525900601410       -5.78655759773500       -0.45801961077663
C           12.33478355024376       -2.82471861132824        0.29394775854299
C           13.61311605613639       -3.48019194055583        0.32765871803917
C           14.56100275108913       -2.51366021022239        0.22930322571194
N           12.53064721766683       -1.47567840151723        0.16412764796434
C           13.87295571156513       -1.26018639896325        0.12743592768403
C           14.50661589978456       -0.00790680797524       -0.00415003465301
C           13.85440994056282        1.23515788803356       -0.13241400580551
C           14.52318083828290        2.49256985801400       -0.29426693503463
C           13.56060710412067        3.44477853760940       -0.39161143756974
C           12.29253254306568        2.77800780286307       -0.28116766722320
N           12.50904182093479        1.43394319766300       -0.13317800990305
C           11.04178182222227        3.40214848825007       -0.34532949475472
C           11.02765772435263        4.87773456734389       -0.49113158996237
C           10.45467094422285        5.49018285248999       -1.60551563653849
C           10.46552307546458        6.87286300633386       -1.69831714413094
N           10.99701927510359        7.65756851728176       -0.76623899470254
C           11.54369782262659        7.08241697517450        0.30021243609410
C           11.58475954164701        5.70888371133448        0.48032207012408
C            9.80094453749609        2.75586231884591       -0.28421696619417
C            8.51739441530736        3.40668419939446       -0.30187114376611
C            7.57457831407793        2.43585476296892       -0.21045719302979
C            8.26928259315074        1.18167679971075       -0.12615626398170
N            9.61501166132260        1.40943620420704       -0.16810709506770
H            6.57422779621627       -0.06829356277156        0.00536926741102
H            6.54090910774302       -2.67768733767192        0.29376389765107
H            8.43063335246680       -4.56836241855325        0.50986396938829
H           12.07950351095574       -4.93254223817734        2.43520442461416
H           12.06517587334908       -7.41141910530845        2.62940865692602
H           10.19196696971078       -7.83407567675625       -1.00439627805010
H           10.13604490951316       -5.37450483864774       -1.36362552401047
H           13.76430292586694       -4.54495277794607        0.40264155861168
H           15.63282944250047       -2.63184869633240        0.21946698374028
H           15.59300053437029        2.62220402076626       -0.33403956494996
H           13.69592893868829        4.50418605142600       -0.53846167098120
H           10.02078080251197        4.89049202568149       -2.39687452512898
H           10.02865994666141        7.37154296422226       -2.55871235553826
H           11.96773176091129        7.74939069476930        1.04527039303559
H           12.02978655693879        5.28555233159761        1.37298737233700
H            8.36192077895579        4.47192100170184       -0.36286212196537
H            6.50179817819825        2.54807358701527       -0.19279777774063
Zn          27.11996640386290        0.03028503478300       -0.01447718957252
C           30.53020345965180        0.05599725318664       -0.02481800166084
C           29.90226309114001        1.27138702748930       -0.26889572174376
C           30.57788920077940        2.52012057327831       -0.48618062161248
C           29.62023900289967        3.46394467964568       -0.66444548513853
C           28.34660082912166        2.80071201891333       -0.56761349822676
N           28.55312969664428        1.47498687485673       -0.32171074241324
C           27.09572595292563        3.42091323386267       -0.67353766157494
C           27.08404502617001        4.87850157238043       -0.94671456591640
C           26.53096547706540        5.78046985667293       -0.03806340616970
C           26.54504749343369        7.13410533661502       -0.33442358078084
N           27.06057625991007        7.62470828691498       -1.45728441268882
C           27.58765558473785        6.77196384419282       -2.33000160602621
C           27.62537750248833        5.40246820595546       -2.12014150685625
C           25.85531109527242        2.78726186068116       -0.54114518806581
C           24.57707631058822        3.42379832952987       -0.70171644666808
C           23.62915496896261        2.47043094807315       -0.51484369192165
N           25.65941394761715        1.45892646646985       -0.27223626458499
C           24.31714359419893        1.24186757593065       -0.24609481679489
C           23.68344599017848        0.00577063101742       -0.00619172354958
C           24.33560412531800       -1.22060908510539        0.23400517825927
C           23.66671102944961       -2.47029974569873        0.44702467272941
C           24.62923437853151       -3.40982195367418        0.63028311459083
C           25.89741886706707       -2.74021420145816        0.54018812489885
N           25.68098576578555       -1.41130827567232        0.29027155846723
C           27.14817112400265       -3.35648761429685        0.65853612334521
C           27.16232690044085       -4.81065665571971        0.94816461877170
C           27.73595400537965       -5.72069168797020        0.06037055599323
C           27.72550500036059       -7.07056250447200        0.37383259951990
N           27.19343261373568       -7.55040813145330        1.49352875380531
C           26.64594317594286       -6.69006540608309        2.34622812249550
C           26.60480198735319       -5.32352162844012        2.11911147854481
C           28.38904853940762       -2.72068654269627        0.52740253826264
C           29.67271084574553       -3.34890353237241        0.69765480415378
C           30.61547804373173       -2.39338022754492        0.50294907610145
C           29.92068924507905       -1.16841475921706        0.22122342231370
N           28.57494279372341       -1.39842780562098        0.24812589765567
H           31.61575492673620        0.06616738620158       -0.01419732230926
H           31.64908838288518        2.64768294508457       -0.49182236512042
H           29.75928362736910        4.51951722215563       -0.83484748983266
H           26.10942793195781        5.42729611572183        0.89564780527270
H           26.12392256517592        7.85542870745102        0.36004006924588
H           27.99873762175659        7.20232896032531       -3.23881700006348
H           28.05520474018295        4.74467936338416       -2.86629520921920
H           24.42601335042095        4.46410460325803       -0.94081237834644
H           22.55737343102864        2.58038986275525       -0.56022004239094
H           22.59685461930161       -2.60555789309145        0.44797059543378
H           24.49369500299486       -4.46596344573986        0.79872960129158
H           28.17005501832847       -5.37708536705008       -0.87111217955741
H           28.16314592558739       -7.79778400707934       -0.30402705040939
H           26.22136368030800       -7.11160371884009        3.25278758822616
H           26.15943277343915       -4.65901611717501        2.85001886877865
H           29.82843486661014       -4.38612852887324        0.94768432620073
H           31.68829325380446       -2.49587894429851        0.55112582094161
C           19.70928331011685       -0.00398064134269       -0.02179627451051
C           18.48085612525296       -0.00070386150911       -0.02346904595333
C           17.13625027467132       -0.00028511393980       -0.02179185040719
C           15.91216365615877       -0.00045134309941       -0.01534919434409
C           21.05387282596863       -0.00380980937219       -0.01852081215760
C           22.27789803930179       -0.00427528249389       -0.01406616940901
