166
 energy: -310.985965200077 gnorm: 0.000898383127 xtb: 6.5.1 (b24c23e)
Cu          16.51074872513915       -0.01759043552387       -0.01567797337955
C           13.08725740197171       -0.05682030607111       -0.05609730597830
C           13.73682660475388       -0.92197558852289       -0.92492876895974
C           13.08386319141227       -1.82570984849388       -1.83206722924531
C           14.05932222841859       -2.49080362269309       -2.49944981180644
C           15.31595670378327       -1.99885838965112       -2.00560200078260
N           15.08965746036696       -1.04903915102179       -1.05232359681914
C           16.56411199512752       -2.42665733919567       -2.43491182349353
C           17.79162231189578       -1.97156364065532       -1.97795556609711
C           19.06557691649650       -2.43758501686381       -2.44586489828960
C           20.01398824100761       -1.75260309875930       -1.75772096887944
N           17.98233074816424       -1.01489344870480       -1.01715034382388
C           19.32503995804545       -0.86474977731916       -0.86630562548251
C           19.95652993524110        0.02278291249154        0.02401718102106
C           19.28420154353402        0.89473563849142        0.89943025344924
C           19.93171763340178        1.79803909843937        1.80620727259947
C           18.95200377648688        2.46098090545415        2.47181548897334
C           17.70029331791444        1.96558916522508        1.97500064721463
N           17.93530433425557        1.01359909565840        1.01918737951643
C           16.45209545868192        2.39138770876798        2.40333971049552
C           15.22452663504389        1.93485769218488        1.94517134119429
C           13.94562425601798        2.39690247930765        2.40998569824531
C           13.00164104267144        1.71007328892700        1.71975024814300
C           13.69632013886493        0.82270042134273        0.82759947330270
N           15.04246059948908        0.98096498485377        0.98646505093749
H           12.00235980524256       -0.06932617556180       -0.06871093500055
H           12.01449090171538       -1.92613122752061       -1.93294945039791
H           13.95422545433732       -3.24870593076492       -3.25996278153234
H           16.58226051661937       -3.19235328050705       -3.20371372188829
H           19.20251005213285       -3.19236352857975       -3.20417048516943
H           21.08652878810259       -1.83219822536522       -1.83734313775722
H           21.00008294185372        1.90191420761628        1.91047387229685
H           19.05389350640347        3.21898644606205        3.23243853476170
H           16.43425171840239        3.15695485143439        3.17229816060842
H           13.80540274974136        3.15118900566571        3.16842893777623
H           11.92816369471891        1.78544207131977        1.79579339851033
Cu          72.43116623441301        0.00019340254668       -0.00822918747105
C           75.85449794184031        0.06108699162504       -0.01072591448187
C           75.20330264615086        1.28482479180797       -0.07147266319620
C           75.85453188597677        2.56464909584367       -0.13472098655935
C           74.87781227334830        3.50441426684412       -0.18029493017574
C           73.62208882464911        2.80651234245821       -0.14534163213133
N           73.85024240870328        1.46273267831014       -0.07979191228939
C           72.37312941662455        3.41019152892538       -0.17367084073813
C           71.14652021363780        2.76431682304169       -0.14159763549130
C           69.87158332726138        3.42211626892163       -0.17330127978417
C           68.92457651525466        2.45096428708511       -0.12712157725227
N           70.95782793336751        1.40979411406827       -0.07639986359764
C           69.61534290743415        1.19518377913224       -0.06689254946693
C           68.98567317390385       -0.06129306760344       -0.01007872628615
C           69.65931884922978       -1.29452921784316        0.04906617857604
C           69.01357882063957       -2.57393317441242        0.11003133309631
C           69.99457162185098       -3.51072201157035        0.15851726723355
C           71.24534603259004       -2.80804927304854        0.12703738759840
N           71.00855503834120       -1.46111834319797        0.06033911940760
C           72.49435015981436       -3.40953944520540        0.15939329828834
C           73.72099682769135       -2.76177324692807        0.12913039941988
C           75.00079759359124       -3.41457327327151        0.16245856409426
C           75.94345489277035       -2.44076303056332        0.11433138882208
C           75.24707909429139       -1.18493576518550        0.05144497727836
N           73.90123160403229       -1.41074600450090        0.06222187121790
H           76.93937052503885        0.08027028586843       -0.01172696749980
H           76.92371463916304        2.70822156543735       -0.14231825408734
H           74.98143446675594        4.57695066751609       -0.23296605779582
H           72.35347977323831        4.49393762432347       -0.22635752812903
H           69.73309657727667        4.49059276040567       -0.22469242165386
H           67.85185847541820        2.56178823033222       -0.13283870359830
H           67.94542035525467       -2.72258514124855        0.11497068981282
H           69.89424298537216       -4.58341521426567        0.21105047543342
H           72.51357670428388       -4.49325964927415        0.21303810415183
H           75.14249824465261       -4.48271710708014        0.21571012118378
H           77.01707812722638       -2.54621064755322        0.12001589389135
C           21.36126685771465        0.03689998014414        0.03918098875363
C           22.58568537120434        0.04092838058441        0.04699207601270
C           23.92823514194192        0.04495920259178        0.04901396098245
C           25.15881211733302        0.04018477159531        0.03919471544215
C           26.49648915099020        0.03227749679950        0.03021561827288
C           27.72702347844024        0.01814815594270        0.01918524423872
C           29.06929775839687        0.00542931143012        0.01006614931997
C           30.29370997814801       -0.00372656552872        0.00095902417463
C           40.00472476342343       -0.06326062085355       -0.04157149258885
C           41.22931788546038       -0.05868026880449       -0.03832918055894
C           42.57137934714746       -0.05316846488092       -0.03198055922974
C           43.80190398789669       -0.04193058541702       -0.02421623850640
C           45.13941798897005       -0.03209821367098       -0.01564749097318
C           46.37004496256054       -0.02054296268552       -0.00976479523402
C           47.71218758695643       -0.01406274906053       -0.00587868653853
C           48.93670366131709       -0.00736213293615       -0.00824919530978
C           58.64780548982528       -0.06313214687594       -0.03657972373903
C           59.87217905900457       -0.07472226064611       -0.03673710251740
C           61.21481466349361       -0.08684002565786       -0.03615179486758
C           62.44513091795226       -0.09589708364725       -0.03212012963034
C           63.78314179963137       -0.10150573157936       -0.02799225326297
C           65.01337363963680       -0.10350771250686       -0.02295489456809
C           66.35626797669590       -0.09672100283245       -0.01732922666147
C           67.58044435264900       -0.08410257559794       -0.01287347343565
Cu          35.14933610971428       -0.03196278508634       -0.02522540565835
C           31.69784294265806       -0.01204140612778       -0.00722236226711
C           32.35998711436853        0.91600487339299        0.81809019707736
C           31.70227724829575        1.86944470843157        1.66410295893753
C           32.67488488394326        2.57897831546747        2.29152477844412
C           33.93132756397781        2.06116247718492        1.83197486802648
N           33.70685788250566        1.05039950648149        0.93659445337800
C           35.17565094298426        2.51932309351314        2.23824646688011
C           36.41034694363549        2.04553232729438        1.82066823937457
C           37.67734972285028        2.54714138618700        2.26896808444668
C           38.63512095616995        1.82567970702950        1.63246155479295
N           36.61379678496647        1.03244340253792        0.92291109988756
C           37.95774359214072        0.88080969693206        0.79234798735093
C           38.60062580097534       -0.05592842701210       -0.03846638928131
C           37.93903717429868       -0.98229232224701       -0.86583800346761
C           38.59674813112651       -1.93397454518105       -1.71369840991308
C           37.62412033601450       -2.63867682882969       -2.34659454364157
C           36.36760359584059       -2.12060419724741       -1.88742224520397
N           36.59206309507449       -1.11396710677274       -0.98745060540321
C           35.12303629895597       -2.57560101974970       -2.29682086014498
C           33.88827934288516       -2.10444536203700       -1.87629673079914
C           32.62118595654351       -2.60614078404537       -2.32450730814587
C           31.66332469454326       -1.88946602228176       -1.68266651476286
C           32.34065739051182       -0.94646108475939       -0.84043750138715
N           33.68461690511819       -1.09541899993659       -0.97393427549967
H           30.63288320999360        1.97309556521140        1.75706004580674
H           32.56474547954380        3.38226975425530        3.00289870099508
H           35.18404026827967        3.33193494950758        2.95770384057735
H           37.80416677669495        3.34845073801309        2.97979383494622
H           39.70654238005665        1.91576268939268        1.71573823319736
H           39.66621420260978       -2.03932593909748       -1.80432325900033
H           37.73422138864925       -3.43900968552543       -3.06131780519218
H           35.11444851992962       -3.38443411497312       -3.02056070241016
H           32.49440222127962       -3.40446551916255       -3.03871617950247
H           30.59187398957619       -1.98127273869083       -1.76384777339721
Cu          53.79201944956169       -0.02817858185881       -0.02764267904415
C           50.34076916540106       -0.01024631033077       -0.01419191282050
C           51.00098664776049        0.91881384521699        0.81123374213449
C           50.34161821682076        1.87182110828239        1.65640842102270
C           51.31302263070503        2.58120975710319        2.28586710950855
C           52.57044822184552        2.06412185143512        1.82802120695203
N           52.34767457388394        1.05384389830504        0.93163337541857
C           53.81410922488848        2.52223986564994        2.23647228049032
C           55.04966516872148        2.04978716591245        1.81954742173847
C           56.31592835314378        2.55193051950877        2.26972719416874
C           57.27496048924240        1.83206364622048        1.63329980773727
N           55.25486399958276        1.03797106879893        0.92093764715647
C           56.59922821969604        0.88728345373139        0.79172181623131
C           57.24320362318886       -0.05133657440167       -0.03548441208083
C           56.58293839754171       -0.98052616031553       -0.86053645238766
C           57.24234926802413       -1.93536229235000       -1.70368361131643
C           56.27101899000046       -2.64180436008744       -2.33650947417496
C           55.01365031099214       -2.12157834703108       -1.88221334807813
N           55.23620316651551       -1.11223618761145       -0.98487189959325
C           53.77007241166071       -2.57689092869505       -2.29412604636303
C           52.53466305955061       -2.10362722072158       -1.87823561491689
C           51.26843747979661       -2.60538110498626       -2.32869921049752
C           50.30949729621372       -1.88762052123506       -1.68979582718447
C           50.98536526397609       -0.94412194994490       -0.84690631966768
N           52.32948638396887       -1.09308792615489       -0.97792072441674
H           49.27198685913565        1.97509390548789        1.74736870337198
H           51.20147262162791        3.38404427903732        2.99755139866295
H           53.82134816747071        3.33372632002416        2.95723119450455
H           56.44136212139708        3.35225117295613        2.98193040603315
H           58.34625617258828        1.92276922103068        1.71770349157671
H           58.31193444696731       -2.04139627204891       -1.79171236891805
H           56.38254159020956       -3.44468362561360       -3.04814280635677
H           53.76299139902011       -3.38774746887165       -3.01557579135652
H           51.14297184678760       -3.40452531004900       -3.04219491298837
H           49.23823258013870       -1.97919626766200       -1.77345047510274
