256
 energy: -467.527669636736 gnorm: 0.000622144880 xtb: 6.5.1 (b24c23e)
Co          44.29268575918982        0.00475530047598       -0.02821311441823
C           40.92081221835010        0.05713449532646       -0.14481594026837
C           41.59744059494781        1.25449567152913       -0.23165693782517
C           40.94955961674872        2.52442415654248       -0.36001547264129
C           41.90809670274528        3.46654891359200       -0.20209676059860
C           43.14333167505877        2.77040634522055        0.01205689512043
N           42.94862643476974        1.41439916912880       -0.05130702369977
C           44.32637181963754        3.38679337584097        0.39748410042016
C           44.34341171205706        4.85593782678031        0.58895030697166
C           44.55945882067756        5.40055484303008        1.85775450330727
C           44.58256803211123        6.77101263261552        2.03234312687650
C           44.39481121527223        7.62649553651897        0.94173695749644
C           44.43171005012395        9.08540420793511        1.15277613800930
O           44.61829686055069        9.60177209721524        2.22459452377449
C           44.17872550881822        7.08208404635069       -0.32636526209426
C           44.15109675824142        5.70957924092559       -0.50003219140195
C           45.49761472331642        2.67336115932574        0.59925406762394
C           46.74845299315768        3.27425916519968        0.95468788035587
C           47.69342707460644        2.31229396835079        0.83073619202212
N           45.67255819264106        1.33982595649889        0.30444470031693
C           47.01872943412463        1.12890161249501        0.40004914703292
C           47.68578401807977       -0.03486087249928        0.00865204832050
C           46.99736215981341       -1.18973961420913       -0.37021816618298
C           47.64771428150652       -2.39094865013839       -0.78880076626667
C           46.68506879865134       -3.33879733527028       -0.88727004137560
C           45.45020918184696       -2.71212986468893       -0.52205922464937
N           45.64746152479650       -1.37478900781454       -0.26581198838719
C           44.25046895369653       -3.38999516661162       -0.36476003108737
C           44.23755525967494       -4.86241973478440       -0.50799330008699
C           43.44591966163878       -5.47127280805041       -1.48581456527889
C           43.44160530526273       -6.84756807472546       -1.62681169476058
C           44.22453211189741       -7.64349276329217       -0.78724042851696
C           44.23691492986725       -9.11239132404675       -0.91611326694522
O           44.89149887081579       -9.83979686994945       -0.21424479826574
C           45.01364829414157       -7.03471930673124        0.19427407917919
C           45.02294588499166       -5.66001663029616        0.33006033881119
C           43.06263507296010       -2.72469868583878       -0.09051026429506
C           41.80095623222616       -3.37696129974865        0.10625953244072
C           40.86107974385624       -2.40390719855028        0.15245073611855
C           41.55159468956457       -1.15919498949061        0.00302170209692
N           42.90589737803446       -1.36243794396521       -0.08562639097756
H           39.83798573375995        0.07436312863070       -0.18126117726553
H           39.89238302346727        2.65653808822629       -0.52635746700963
H           41.79873223914355        4.53884740035116       -0.20649852153435
H           44.69558482432405        4.73925257499875        2.70591970041924
H           44.74612711461191        7.20312656673047        3.01374564216658
H           44.27231903895187        9.68356523729840        0.23031700450117
H           44.03527517596596        7.73892079900736       -1.17816638079911
H           43.99679058339495        5.28914553218931       -1.48735124716859
H           46.87922841113523        4.30610026094525        1.23676879699010
H           48.75615694164229        2.38500369218058        0.99634141178966
H           48.70638886324511       -2.48237379782266       -0.97030118492097
H           46.78982051151880       -4.37038604423411       -1.18114558526752
H           42.84785520998779       -4.85534595861028       -2.14794471804436
H           42.82990531324306       -7.31159945966614       -2.39368620119560
H           43.58423752174330       -9.50461361462563       -1.72497237282804
H           45.61570983862172       -7.66098648211141        0.84382807176083
H           45.62761941974664       -5.19136548334583        1.09823196392303
H           41.66611223528309       -4.44291579705651        0.19266503820676
H           39.79379331990134       -2.49965812694943        0.27281862498709
Co          92.15194719538428       -0.03584314239688       -0.07401276994964
C           95.52583453239981       -0.07102636540117       -0.20409360914921
C           94.84955493928743       -1.24693690478691       -0.44516056209604
C           95.50028846960687       -2.48849998550293       -0.73488155272032
C           94.54329742273411       -3.44454598387910       -0.70277274022888
C           93.30554329195485       -2.78348858997650       -0.40745689229347
N           93.49813385073399       -1.43056164767208       -0.29021560041419
C           92.11842391540746       -3.44643043902281       -0.12796175227167
C           92.10130355276355       -4.92801753266231       -0.13786729639384
C           91.86019255404196       -5.63881207316708        1.04108620238145
C           91.83638474043870       -7.02025259889526        1.02880645834284
C           92.04873579010892       -7.72096105272158       -0.16304576644029
C           92.00913772445205       -9.19480901979803       -0.15208512717993
O           91.79947325151851       -9.85132929879436        0.83555402817617
C           92.29033774114487       -7.01056022737204       -1.34127442009588
C           92.31823431863894       -5.62720877296092       -1.32771604797412
C           90.94131247714756       -2.76753915168721        0.14605179453894
C           89.68525165165234       -3.41465577702238        0.38161477916324
C           88.73992622565868       -2.44535507202082        0.38028863693748
N           90.76866853938600       -1.40526767786854        0.04604811758095
C           89.41970808232222       -1.21082187940315        0.14621368386700
C           88.75633234233958        0.00056183248230       -0.05998835304892
C           89.44640226323774        1.20125300478519       -0.23593329495333
C           88.79672307692424        2.45505072048701       -0.45268404462729
C           89.75955870835531        3.40577067508472       -0.39432132560345
C           90.99427540461883        2.72728620677890       -0.13773094992100
N           90.79678968232589        1.36640082811512       -0.10011814631359
C           92.19607864886353        3.37236345389897        0.11384703643364
C           92.20876598112426        4.84952011516768        0.20016295273490
C           92.98368370991534        5.60327893075022       -0.68569193152369
C           92.98686703912240        6.98485624924492       -0.61263508889424
C           92.21946819541290        7.64026663927883        0.35322430037207
C           92.20571457678435        9.11142047252677        0.45201625718650
O           91.56325226833897        9.72109739869901        1.26794580510148
C           91.44722081152186        6.88593071647398        1.24278627622490
C           91.43903724026733        5.50669763943389        1.16492190199731
C           93.38565256081932        2.67378506776908        0.26837019390649
C           94.65035073142757        3.29107164754044        0.54341440480970
C           95.58970930482342        2.32294082734589        0.43342443419196
C           94.89601486439183        1.11281264572418        0.11282606487728
N           93.54100384024478        1.32553152036481        0.06941428965042
H           96.60846063735238       -0.08218397408996       -0.24781284258925
H           96.55833292748702       -2.59631345465377       -0.91287772437312
H           94.65508111706802       -4.50712399208225       -0.84493398646470
H           91.70457464385181       -5.09781119481383        1.96756012030964
H           91.65312161796473       -7.58066136669466        1.93929246854400
H           92.19005610898932       -9.66292206006941       -1.14321017738029
H           92.45317586457422       -7.54665277612217       -2.27062066975525
H           92.49178295192731       -5.07762191622572       -2.24598371849374
H           89.55218588366230       -4.47694980758986        0.50478293326090
H           87.67417967253586       -2.54185132839315        0.51057703534531
H           87.73817288821010        2.57516940248865       -0.61738896746835
H           89.65541593111367        4.47158607956011       -0.51555052282670
H           93.56945654190325        5.09792908285793       -1.44527376465424
H           93.58538664686301        7.56278231018983       -1.30933399361554
H           92.84389922875181        9.62464541568995       -0.29863116360701
H           90.85726468122525        7.40339226552554        1.99164472548988
H           90.84711534434209        4.92394020095793        1.86160435689751
H           94.78718853593043        4.33278739425470        0.78422877552159
H           96.65852445175020        2.40054806670960        0.55334131784489
C           52.88403607024368       -0.05678795465338       -0.00632359433926
C           51.65478307233841       -0.05565571088941       -0.00382459879752
C           50.31224261947427       -0.05143703037535       -0.00087944675106
C           49.08781531210558       -0.04519949037278        0.00367294129710
C           54.22626619427425       -0.05736626488764       -0.00717423142125
C           55.45107944645270       -0.05615486018515       -0.00607653322744
C           68.83214228009838       -0.01069485812680       -0.06326645395781
C           67.60259353094067       -0.01491409922793       -0.06163036318792
C           66.26071475939725       -0.01555635751859       -0.05463080924283
C           65.03577099096496       -0.02188231099506       -0.04744430865785
C           70.17406986811456       -0.00743143727540       -0.06033503381179
C           71.39899403383328       -0.00548807168045       -0.05384526147535
C           84.78521336119984        0.02776742615799       -0.08849035430206
C           83.55652955851835        0.02803483423047       -0.09028723500466
C           82.21310456638768        0.02315941493361       -0.08386237671995
C           80.98888665960203        0.02073336613389       -0.07254543684730
C           86.12895794628599        0.02208230575730       -0.08206537926801
C           87.35279792352945        0.01252356563503       -0.07399725775996
Co          60.24362395365670       -0.04101820320501       -0.02037238165220
C           56.85157518111485       -0.05365212469374       -0.00267161082893
C           57.53067986279352        1.16721729130430        0.06568358781779
C           56.87858611776068        2.43739286455690        0.09337719650846
C           57.83126612229182        3.35593872776522        0.38830870076893
C           59.05925329365132        2.63826259938383        0.54812682382776
N           58.87261014746691        1.30275089708601        0.28103439217562
C           60.23642198689861        3.19289381911864        1.03366441366702
C           60.23233233034135        4.60035770297189        1.48720999086834
C           61.09049399634822        5.53574443298557        0.90062028888154
C           61.08451787809166        6.85012506363677        1.32572529696352
C           60.22542171915094        7.25840779646584        2.35125987272536
C           60.24351081705612        8.66625686783154        2.79097852566812
O           60.96506068907809        9.50507313904503        2.31607057492029
C           59.36862636437587        6.32470845604904        2.93884060654160
C           59.36995670748095        5.00995330119764        2.50816976675848
C           61.41766321556721        2.46681492494754        1.09997786439827
C           62.64847728312683        2.97070532647051        1.63007442917401
C           63.60701679926734        2.06465500756515        1.31777304945916
N           61.60880323865756        1.22355731883846        0.54312624371963
C           62.95514328025571        1.00658146002971        0.61379605513209
C           63.63553732286909       -0.02958688934312       -0.03396833070056
C           62.95350698036951       -1.07723040593562       -0.66134339880783
C           63.60207891582169       -2.13603718115373       -1.36696774353729
C           62.64894057444366       -3.06068186606616       -1.63991923106497
C           61.42438676008629       -2.56443070736742       -1.08918073791775
N           61.61321095312586       -1.31387752715226       -0.54977981299954
C           60.25023986089349       -3.29967696311930       -0.99498519877113
C           60.25416238184608       -4.71394251041597       -1.42693887968717
C           61.12600260089597       -5.63056274866572       -0.83233659815648
C           61.13102399834003       -6.95455600171290       -1.23364136031233
C           60.26857067251252       -7.38675265048501       -2.24381566460562
C           60.25721956376647       -8.79157544865152       -2.69373707276877
O           59.53469417545854       -9.20896972188127       -3.56169246854194
C           59.39860248117851       -6.46901867974300       -2.84154930567226
C           59.38870027616422       -5.14857312023802       -2.43561089410198
C           59.07227647692184       -2.74421633039626       -0.51354070360216
C           57.84577010496340       -3.46429072013018       -0.35046726513265
C           56.88757996216793       -2.54490465931881       -0.07833841877311
C           57.53545045772293       -1.27218094677286       -0.06186068648008
N           58.88014976926956       -1.40613750254255       -0.26026354184880
H           55.82587965912369        2.58949747855202       -0.08212207114962
H           57.72225737002934        4.42330699459071        0.49068030417117
H           61.74831630787212        5.22514968561181        0.09681739482265
H           61.74282490447131        7.58326176574844        0.87212547795832
H           59.52836853848043        8.89796943252719        3.60872973953575
H           58.70121651864524        6.63239613141632        3.73721517298359
H           58.71320728808435        4.28445641001390        2.97482573613832
H           62.75561404021222        3.89969436244461        2.16580649538806
H           64.66319093575797        2.09899739034698        1.53090630870302
H           64.65278184695525       -2.15872495991025       -1.60704317265584
H           62.75545100463964       -3.99594027303152       -2.16484403009060
H           61.78786435454828       -5.30027090849997       -0.03968889189052
H           61.80646324356768       -7.66086172619088       -0.76202329796595
H           60.97919585483844       -9.44675555729186       -2.16147622875644
H           58.73544265018531       -6.81297089608606       -3.62800988854602
H           58.72268695675748       -4.43675691918038       -2.90999372795308
H           57.74094878752372       -4.53322526842941       -0.43926990390490
H           55.83384748592510       -2.69788836862711        0.08995667377040
Co          76.19315972188029       -0.00068852629238       -0.03582941795092
C           72.79945790655401       -0.00585383591679       -0.04136082467299
C           73.48010876843468        1.21208771672291        0.05191587722143
C           72.82763841877573        2.48181991143611        0.09761712910299
C           73.78006642170598        3.39595982973993        0.40508206656448
C           75.00868743965893        2.67637797988390        0.55338747696031
N           74.82197850756305        1.34400310401886        0.26919658286429
C           76.18683291909116        3.22818132514906        1.03748096759723
C           76.18138379651639        4.63251105417360        1.50151392903496
C           77.02512719991536        5.57754554838080        0.90978720657789
C           77.01332325533068        6.88976085624454        1.34164250600767
C           76.16329743840626        7.28569205921514        2.37946117793556
C           76.17248177235686        8.69215936616631        2.82418202004851
O           76.87738246737122        9.54061143871255        2.34163999734090
C           75.32231002031142        6.34176546758084        2.97345582148351
C           75.32895162855554        5.02936494086530        2.53571570215689
C           77.37042562748752        2.50425425978564        1.09026281844223
C           78.60332408368315        3.00982866516423        1.61352127236983
C           79.56184657184664        2.10683826071471        1.29283264001573
N           77.56029833680316        1.26388322979678        0.52761208617912
C           78.90800987377459        1.04859436199377        0.59104341020002
C           79.58700299074255        0.01275688579254       -0.05709791126530
C           78.90479518662195       -1.03733816305149       -0.67838880009885
C           79.55442373740915       -2.10144069083220       -1.37497909479498
C           78.60204746058372       -3.02856312597668       -1.64180579756955
C           77.37637907442108       -2.52758408617115       -1.09832983898796
N           77.56351950844643       -1.27375253384090       -0.56722475176456
C           76.19981022362937       -3.26070119186472       -1.01106027661474
C           76.20552336808424       -4.67737177556795       -1.43564153554757
C           77.06550181123411       -5.59339275587951       -0.82317176156757
C           77.06910439747237       -6.92050202439979       -1.21404501380010
C           76.21715216330912       -7.35661565463358       -2.23149906222248
C           76.20219132906114       -8.76538190296220       -2.66801179380147
O           75.48656000723877       -9.18716120060985       -3.53973749908204
C           75.36046345765165       -6.43904936185132       -2.84847358111796
C           75.35212774820185       -5.11541456167935       -2.45311405520990
C           75.01827873936610       -2.70134721523943       -0.54545328136161
C           73.78717868946335       -3.41780337662597       -0.40004470163514
C           72.82835361680404       -2.49582408005439       -0.14030151262659
C           73.48043326911491       -1.22535244067249       -0.11121866376063
N           74.82677358033486       -1.36246600246328       -0.29323273429550
H           71.77485989967042        2.63599258081730       -0.07563513365649
H           73.67108480347025        4.46173192783768        0.52277176585968
H           77.67557624951282        5.27644282206870        0.09643551018017
H           77.65951757528806        7.63078489543099        0.88346927192500
H           75.46717442850456        8.91280958677102        3.65345766343123
H           74.66234978010131        6.63981092875856        3.78163075926108
H           74.68359875114245        4.29604190822435        3.00606280675735
H           78.71157975845334        3.93800347441800        2.15040694476600
H           80.61927394282209        2.14293799896400        1.49925162656262
H           80.60558457103654       -2.12585290031680       -1.61284544902029
H           78.70944334429126       -3.96821661201365       -2.15866889892952
H           77.71882910747469       -5.26006497679103       -0.02474252975247
H           77.73467819418980       -7.62645641800014       -0.72808253341362
H           76.91420699856434       -9.41978406122191       -2.12151620355252
H           74.70597302515591       -6.78586849590419       -3.64092527621018
H           74.69619439688054       -4.40399680700697       -2.94193426620409
H           73.68008832179670       -4.48629827976914       -0.49147611339627
H           71.77197903855655       -2.64574649865603        0.01370625275680
