416
 energy: -823.132575421555 gnorm: 0.000730510697 xtb: 6.5.1 (b24c23e)
C           72.42817985938753       -0.00259136601191        0.12099758264237
C           73.02308153758160       -1.21700801065124       -0.19461578004063
C           72.35831829022450       -2.44920675783979       -0.45152293453342
C           73.30794048784480       -3.38807808820331       -0.73927766335085
C           74.58381421122299       -2.75725519374116       -0.67516533578290
N           74.36163810832501       -1.45394115904466       -0.33391571370157
C           75.83903933740395       -3.33842231904617       -0.88700469771332
C           75.84962925954771       -4.76859317812392       -1.27893019083849
C           75.22937942345693       -5.17794840613780       -2.46227494944501
C           75.23602485334989       -6.51178615082837       -2.83530036069083
C           75.86354573742204       -7.43015535852930       -2.00924732913635
S           75.87956459103140       -9.11917299002595       -2.47886328844551
O           75.73139788080141       -9.25925958900940       -3.89800927096326
O           74.48064394297681       -9.57016746584782       -1.78664251279067
O           76.95213036593836       -9.81336399390153       -1.83054733707764
C           76.48828056057955       -7.05511299001837       -0.83097224402352
C           76.47942195491159       -5.71784377528939       -0.47001412444470
C           77.06382064846504       -2.67804178525673       -0.75888695398242
C           78.35092165360066       -3.29232682476565       -1.03374597406712
C           79.28353129328063       -2.34805685658317       -0.79333191956569
N           77.23483862891656       -1.38141619398040       -0.38376286109193
C           78.56473150113708       -1.15609970677201       -0.38549595712201
C           79.21627154636448        0.04626924555894       -0.04745627401571
C           78.59658480313063        1.26020626470717        0.30202780780650
C           79.25690219938123        2.46739250537547        0.65449691831885
C           78.30204588471049        3.41179321032874        0.90972149274918
C           77.02739981682184        2.81058848054122        0.71358856275560
N           77.25729642795150        1.50910331351660        0.35568600754937
C           75.77184167107706        3.40460698107234        0.88157555674529
C           75.75829187397198        4.84134949281642        1.24560973445153
C           76.32721595272490        5.79006855887770        0.39164112520765
C           76.31348536304888        7.13450970916156        0.72417052927017
C           75.73048117167505        7.51762438074046        1.92123035559915
S           75.70285172550651        9.21854529702045        2.34450343832120
O           75.81277642942290       10.03979458791438        1.17460911339159
O           77.11868923973002        9.28685120970806        3.13852542157051
O           74.64869183415493        9.49177897937801        3.27578334635006
C           75.15736618183074        6.60135083063228        2.78814350386382
C           75.17311673222237        5.25994318541419        2.44359996358907
C           74.54588652975627        2.74688733484674        0.73367116626953
C           73.24780466654458        3.39137258171552        0.86571848729702
C           72.32326403562905        2.43298799111810        0.65783211954314
C           73.05473287183544        1.20787443626656        0.38517426310342
N           74.39030050166656        1.43693243141485        0.43058182026674
H           71.34353339936285       -0.00821440759104        0.15740666146445
H           71.28963524779554       -2.58695328372555       -0.41271098980978
H           73.14572779793622       -4.42912876165494       -0.96685198514283
H           75.09380305379054       -0.76431162513565       -0.20150314818384
H           74.75601866716950       -4.44186486604212       -3.10160701346582
H           74.76873123032701       -6.83782562144317       -3.75602213343821
H           74.24858887579998      -10.46644028492265       -2.05866536407771
H           76.97381264724717       -7.79881922495042       -0.21172184521372
H           76.95217452367851       -5.40516051399315        0.45362397039141
H           78.49874762705788       -4.30345790017237       -1.37663314312695
H           80.35518945322853       -2.42178049662239       -0.88559304418514
H           80.32693165179235        2.58666829396508        0.70815613047327
H           78.46317947619858        4.43182031985686        1.21815668772974
H           76.52628597324808        0.83086538544986        0.16786853120249
H           76.76496619174890        5.47168704197412       -0.54733525069166
H           76.74059604440075        7.87876414169327        0.06381608078402
H           77.32236885662589       10.19904668653735        3.37837093590017
H           74.70590559615974        6.93627462107127        3.71354737730185
H           74.74148922902135        4.52584458833034        3.11381833449079
H           73.09022214442693        4.43713680509912        1.07476342084106
H           71.24807848351357        2.51759093092662        0.67052931529958
C          159.33594481490684        0.02745749004636        0.11755972721452
C          158.73821130062800        1.22260583074105        0.49524428826940
C          159.40034364645211        2.40733037010026        0.92444215951274
C          158.44809978683259        3.35242690030564        1.18165704051253
C          157.17318993088878        2.77785668580451        0.90903030285770
N          157.39858119348224        1.49172025006738        0.50964365008802
C          155.91603581997356        3.37870182293219        1.03861588697102
C          155.90021415744724        4.79936053839691        1.46316719652941
C          156.51876371632304        5.77648196750194        0.67881197269664
C          156.50816601890847        7.10466989253142        1.07149198334820
C          155.87828062684085        7.44228699910611        2.25845391023252
S          155.85910592347275        9.12229088668689        2.75925708630170
O          156.00117116513843        9.99694692534541        1.63211349382508
O          157.26146673947400        9.14075296245118        3.57977593928845
O          154.78906745539416        9.36151524282819        3.68136066925268
C          155.25424775453283        6.49708664669933        3.05624080731566
C          155.26708934348119        5.17249345458663        2.65153180157673
C          154.69316964951872        2.74537177511147        0.80152854875060
C          153.40446397168267        3.40970667203432        0.88719570186622
C          152.47413269127119        2.47607756655298        0.60085360342436
N          154.52541822032850        1.44283418575325        0.44599178590512
C          153.19585158672035        1.24752488913297        0.32960271306695
C          152.54673564924545        0.03976116369402        0.00581519405124
C          153.16931589222736       -1.17835048666483       -0.32343156459608
C          152.51248866984852       -2.39734531804314       -0.63979315105053
C          153.46965912187792       -3.33073708643614       -0.92536305404944
C          154.74212062734782       -2.70676842185302       -0.79834477442454
N          154.50890627095089       -1.41064204491095       -0.42365485939154
C          155.99921857022440       -3.29219106004651       -0.98442750353911
C          156.01681610198426       -4.70619531375680       -1.42843612882600
C          155.43222512067865       -5.06987504267370       -2.64458570494280
C          155.45243117487220       -6.38809723873609       -3.06905764168888
C          156.05753897987128       -7.33758917862608       -2.26164677270003
S          156.09600273909979       -9.00613815310233       -2.79784474292871
O          155.96068632018699       -9.08931101113922       -4.22260297772204
O          154.69923521010395       -9.50022907058962       -2.13143313627878
O          157.17119830992831       -9.71586456433229       -2.17032612337756
C          156.64552917631289       -7.00848538198318       -1.05104080934318
C          156.62315262508881       -5.68654534550865       -0.63839698580626
C          157.22375619783659       -2.64584442577944       -0.78368641532272
C          158.52283450683024       -3.25480623473409       -1.02743978196980
C          159.44547912408188       -2.32440957071602       -0.71182361647594
C          158.71166826746150       -1.14386444951393       -0.28982170292612
N          157.37663414562797       -1.37099584928580       -0.35526946525536
H          160.42091363475330        0.01856658543296        0.14179878392883
H          160.46917114286202        2.50827975147658        1.02439834418857
H          158.60815406088238        4.35710878980660        1.53787322021392
H          156.66777660103679        0.83313652085606        0.26186139997687
H          156.99400016706352        5.49391245977741       -0.25335208780255
H          156.97441300205153        7.87123725029217        0.46536342429692
H          157.50086317197724       10.04721260326952        3.80812560926328
H          154.76648840939265        6.79690449750281        3.97521125170251
H          154.79506439281835        4.41570364195557        3.26704321830028
H          153.25425570601192        4.45127336034506        1.12040089964664
H          151.40223854360761        2.58462204539913        0.56067192547702
H          151.44315716459062       -2.53375979720665       -0.64179500135913
H          153.31173709082029       -4.36355642779574       -1.18977013259983
H          155.23804482397784       -0.72852811010477       -0.24273472472243
H          154.97747484911915       -4.30968514722919       -3.26906668285279
H          155.01373459913910       -6.67805917196040       -4.01555817792595
H          154.51007839893143      -10.41059616624604       -2.38938759521189
H          157.11379228043978       -7.77549254955241       -0.44705929919688
H          157.06665235496587       -5.41035344730316        0.31102906659567
H          158.68224040996552       -4.25304391633516       -1.40196391538129
H          160.52064094720043       -2.39603375588482       -0.75932196458678
C           84.42030967833712        0.07188760484628       -0.03886335900683
C           83.19257706024000        0.06213701476344       -0.04915860045694
C           81.84712446361920        0.05680449322004       -0.05481010292038
C           80.62379679559005        0.04935540507129       -0.05731218642579
C           85.76551198302306        0.08300059291544       -0.02564064885345
C           86.98886676383304        0.09231848062892       -0.00754144613845
C          100.45854902483914        0.10233334770592        0.06969727286314
C           99.22970723369070        0.10915484493774        0.07129074925012
C           97.88628998844563        0.11616917979735        0.07252342249364
C           96.66191725608337        0.12521381526928        0.07088765160780
C          101.80194985117160        0.10119922420487        0.06845604295130
C          103.02639654149135        0.09800028054742        0.07100241134802
C          116.49599853060202        0.07660147022753        0.05219150339804
C          115.26710857504445        0.07922264043681        0.05282226161748
C          113.92381731110385        0.08241509194146        0.05763157953241
C          112.69934218448007        0.09031971606013        0.06079928919760
C          117.83929116144499        0.07614700692681        0.05224885131633
C          119.06377715726877        0.07651752287480        0.05466532748165
C          132.53356340835205        0.10516271583363        0.08351313345632
C          131.30462306372976        0.10811220964796        0.08203772312813
C          129.96121887780890        0.10948227570146        0.08212544382628
C          128.73680043951271        0.11351251632049        0.08113900404454
C          133.87699855320488        0.10422396394114        0.08385359108057
C          135.10137144149274        0.10158283841556        0.08680700931368
C          148.57066172056386        0.03886713704994        0.02723240564616
C          147.34283986033986        0.04629827993604        0.03952155326125
C          145.99776004751837        0.05620610163195        0.05471027914657
C          144.77428782271221        0.06718796232839        0.06613558712711
C          149.91596521553961        0.03746677621925        0.01409552242006
C          151.13932765016671        0.03898701306583        0.00572121701689
C           88.39517053385602        0.10796319194213        0.01075684392846
C           89.02636884669039        0.79892312331814       -1.04050600952024
C           88.38288368724452        1.45592589876627       -2.12134439536997
C           89.35062934653374        2.01405205324238       -2.91057244647873
C           90.61413808140357        1.71991872331817       -2.32845306874926
N           90.36786027313619        0.97610157321345       -1.20635772502085
C           91.87633752101635        2.08994102804043       -2.80883617246154
C           91.89353920464335        2.92748990027020       -4.03343963526762
C           92.49955978793402        2.45565015984304       -5.20049995366068
C           92.51519523163577        3.23139356851082       -6.34792125658678
C           91.92162899833751        4.48269593273124       -6.31282080375063
S           91.94685456875219        5.47476407702538       -7.75816499063767
O           91.82116847540847        6.86409525500639       -7.42826004287252
O           90.53944768515269        4.98406668143422       -8.40398027159165
O           93.00983797864502        5.07182440931783       -8.63034900178071
C           91.31896576556501        4.98080930445011       -5.16910740219380
C           91.30491002281218        4.19460781947527       -4.02879764464385
C           93.10048781485044        1.73819968448406       -2.23795116614857
C           94.38728698315059        2.18955451939390       -2.73781949308193
C           95.32230901598507        1.63985993852347       -1.93603812942875
N           93.27441120225788        0.94991948005222       -1.14177282268233
C           94.60511134944367        0.86442824074698       -0.94286398612181
C           95.25761823208478        0.13105964328989        0.06877514130544
C           94.62598189984101       -0.60290981299900        1.09138631075488
C           95.27016420256552       -1.35900261710138        2.10471176053185
C           94.30215704709272       -1.89885526352850        2.90633887650286
C           93.03762143937168       -1.48070626011872        2.40840492659863
N           93.28415283645164       -0.70792456704743        1.30567666628741
C           91.77514408801322       -1.80625531034675        2.91862755059087
C           91.75667180694657       -2.63247043855296        4.15084543926205
C           91.16817607430423       -3.89956163784808        4.14104349985766
C           91.15154910978102       -4.67610744346730        5.28793663864046
C           91.72420130949969       -4.16882777275317        6.44295398917127
S           91.71631420279516       -5.14940499557477        7.89630720050652
O           91.56967377563294       -6.53760009752867        7.57226219851813
O           90.31582186511419       -4.62246248876409        8.52722563981153
O           92.77720589127360       -4.76122263811838        8.77862199545225
C           92.31642360447822       -2.91704393583678        6.48361758636717
C           92.33170269808981       -2.15103243466860        5.32969380583444
C           90.55034011439923       -1.42145276129422        2.36974483709849
C           89.26204929318780       -1.73827430923575        2.96115313546070
C           88.32720061579981       -1.20734440691840        2.14671278915297
C           89.04557077249339       -0.55805964153237        1.06763121183830
N           90.37753701188485       -0.69382622255406        1.23310635805054
H           87.31585727805299        1.48796076103094       -2.27102754258718
H           89.20427304512320        2.57164106368607       -3.82113719895647
H           91.08578180988026        0.60549072382523       -0.59277238248847
H           92.94860529915283        1.46941314334154       -5.20943955256553
H           92.98236954430109        2.87581276673952       -7.25766745638643
H           90.33432465780587        5.50366941008074       -9.19082506089265
H           90.87597525900777        5.96881093680599       -5.17321888703779
H           90.85001102133661        4.57099798800658       -3.11993692267222
H           94.53324653173435        2.84819581954724       -3.57843837299259
H           96.39459535678243        1.74091253928496       -1.98447242291051
H           96.33787231556082       -1.47374967554643        2.19840606115662
H           94.44923959358077       -2.53885691873042        3.76084293287635
H           92.56587789626282       -0.28188924247882        0.72965289385012
H           90.73658292244249       -4.28232316087105        3.22366107755219
H           90.70783212013816       -5.66376635542383        5.28876049708072
H           90.15099804070198       -5.04659260921511        9.37815018858162
H           92.75936642623356       -2.55377633341138        7.40242790457928
H           92.77959480983182       -1.16420609542900        5.34349181759470
H           89.11480448281584       -2.28078555052393        3.88081377538281
H           87.25409729447003       -1.23032212596185        2.24813423736547
C          104.43054720081460        0.09906588188457        0.06954645620064
C          105.05588362854768        0.77524763302745       -0.99620906015421
C          104.40576696536888        1.42462635649062       -2.07726443127759
C          105.36915200223471        1.96995084608162       -2.88111946882665
C          106.63616487996740        1.67581030078438       -2.30737653184880
N          106.39630969850738        0.94336273403526       -1.17605213171554
C          107.89570708653284        2.03853698744760       -2.80020450973904
C          107.90680415346672        2.86708676296786       -4.03104889804330
C          108.50436827525954        2.38512482260298       -5.19828587225568
C          108.51770412977511        3.15370320748227       -6.35058744867846
C          107.93043571709420        4.40802714921987       -6.32015540477547
S          107.95585332453201        5.39264047675950       -7.77092724128329
O          107.85606367133218        6.78595604109042       -7.44819450060405
O          106.53244583687858        4.92690112829603       -8.39888769857623
O          109.00400780586169        4.96599280346111       -8.64921921205485
C          107.33520637292317        4.91558881028456       -5.17666952153792
C          107.32321263662681        4.13653017682419       -4.03143358246995
C          109.12340427413586        1.68982135122862       -2.23515995349286
C          110.40697774063726        2.13773500117680       -2.74611125756677
C          111.34710901349584        1.59349726323736       -1.94653170952095
N          109.30433295086640        0.90860471696177       -1.13491119292244
C          110.63627809165051        0.82436694988540       -0.94407294865943
C          111.29528370198750        0.09565170833194        0.06677731154268
C          110.66991843248007       -0.63527842755184        1.09568341878274
C          111.32006769753424       -1.39127531969318        2.10500665182917
C          110.35680213831158       -1.92801840873892        2.91470420607209
C          109.08977454109274       -1.50737513555963        2.42600199214988
N          109.32952253900797       -0.73716952715504        1.32007601939574
C          107.83014530428513       -1.82665790697052        2.94802499459725
C          107.81939560910186       -2.65194637344337        4.18107930410692
C          107.22699564188957       -3.91720800216293        4.17634905998748
C          107.21838840829373       -4.69388547303247        5.32324115305435
C          107.80278347915761       -4.18844734117874        6.47315787155058
S          107.80667127379174       -5.17013017830458        7.92588421233057
O          107.65543750283858       -6.55806415435890        7.60253915456701
O          106.41226442591400       -4.64282136435686        8.56906133292066
O          108.87663630665942       -4.78355112685108        8.79773870470403
C          108.39845496135706       -2.93817887052366        6.50882394523749
C          108.40573798826132       -2.17201202015902        5.35488491299982
C          106.60248522890171       -1.43601869077048        2.41123247305967
C          105.31888851114992       -1.74218869634717        3.01779591677176
C          104.37872596116668       -1.20535678944652        2.21325701468517
C          105.08953507223521       -0.56499716902947        1.12396104183514
N          106.42146056636497       -0.71003787726470        1.27379064353144
H          103.33761603361592        1.46056503661414       -2.21764234391524
H          105.21719648171117        2.51909990953111       -3.79587904616468
H          107.11800445771783        0.57617980821375       -0.56483272760261
H          108.94924631877383        1.39697250695558       -5.20323202101866
H          108.97879660089917        2.79040999212162       -7.26038494093249
H          106.28728701502391        5.50277077755101       -9.13341224284588
H          106.89685887089770        5.90564894883522       -5.18453843921438
H          106.87463739528454        4.52060423842557       -3.12264853095063
H          110.54762886023308        2.79087525222479       -3.59189993559588
H          112.41905951955421        1.69429486428716       -2.00232180865133
H          112.38818519365287       -1.50831799957501        2.19080412026751
H          110.50897061353452       -2.56706632173611        3.76902529407509
H          108.60787082831244       -0.30960420352900        0.74941630018587
H          106.78609618826658       -4.29844109942519        3.26275982648926
H          106.77207491646435       -5.68036365599047        5.32782001905819
H          106.24259268469746       -5.08404125190967        9.41033285454386
H          108.85031533723989       -2.57621436530382        7.42379084992767
H          108.85640643520880       -1.18641427193189        5.36484868571403
H          105.17833050129035       -2.28186034079202        3.94016583233783
H          103.30672339342981       -1.22009433983824        2.32714824659124
C          120.46782830429304        0.08274055956209        0.05747753220541
C          121.09402413880247        0.76146209417755       -1.00615434716698
C          120.44492857124038        1.40777279027552       -2.08967466991802
C          121.40880740803779        1.95676482164224       -2.89041782023514
C          122.67504371811384        1.66870261919201       -2.31183350029958
N          122.43429789261214        0.93554886379639       -1.18110317894737
C          123.93471809366935        2.03709138868375       -2.79994615610276
C          123.94689818880610        2.86506378034615       -4.03116319168580
C          124.55214685225157        2.38561098543887       -5.19548300259072
C          124.56756905683193        3.15407167175976       -6.34783055510555
C          123.97444773501161        4.40571541863809       -6.32046305763506
S          124.00376892078449        5.39079762526283       -7.77085303260080
O          123.89264453089524        6.78336537325713       -7.44852433577609
O          122.58795229779315        4.91644484595557       -8.40940724296826
O          125.06107298791461        4.97109407001580       -8.64147027590410
C          123.37108035278457        4.91055101609755       -5.18004917629056
C          123.35716928245785        4.13165153252147       -4.03472282909404
C          125.16193301022038        1.69481103670748       -2.22971181442809
C          126.44526653428395        2.14884608580448       -2.73582912001453
C          127.38493231018258        1.61005996797631       -1.93200380354138
N          125.34237724619015        0.91530322957455       -1.12824107329820
C          126.67405286653077        0.83767570682507       -0.93214227093652
C          127.33264273540037        0.11267386824662        0.08160160661338
C          126.70672632597190       -0.62077237645495        1.10837046499096
C          127.35655352908761       -1.37283439341309        2.12081058650342
C          126.39268117046798       -1.91487985343141        2.92625358948347
C          125.12556117037118       -1.50111548001308        2.43200535105560
N          125.36591033711278       -0.72956437742516        1.32720084649556
C          123.86541480770664       -1.82753783428864        2.94849801920233
C          123.85422595758992       -2.65376172916220        4.18095636714159
C          123.27019055253464       -3.92286755418093        4.17249573816646
C          123.26241999332819       -4.70098526425089        5.31843281301209
C          123.83894222899129       -4.19300071649225        6.47119316448020
S          123.84418921588629       -5.17653999437405        7.92267149379696
O          123.70618006844938       -6.56498979378141        7.59597193065415
O          122.44318298228899       -4.66072283671825        8.56070769479579
O          124.90653495468482       -4.78271199622555        8.80072635937549
C          124.42577347292249       -2.93866843841706        6.51070831165762
C          124.43249839095914       -2.17115721797923        5.35766995205470
C          122.63801809437990       -1.44313040200220        2.40687445618585
C          121.35357646733789       -1.75600136752882        3.00820099395937
C          120.41398297947106       -1.22272700892297        2.20063833738658
C          121.12591786086021       -0.57874876010506        1.11416001452652
N          122.45787013800916       -0.71704911750510        1.26927890875575
H          119.37714125492731        1.43885073349620       -2.23395346351689
H          121.25772277924416        2.50472213871735       -3.80603984645242
H          123.15530843491831        0.57207871388225       -0.56686645017339
H          125.00166638911577        1.39955377924996       -5.19806585278542
H          125.03488484299217        2.79281048822082       -7.25525614637824
H          122.34358771695233        5.49287274716456       -9.14376763543438
H          122.92814181665189        5.89854004128570       -5.19024028233720
H          122.90243178135044        4.51383221937110       -3.12820942899007
H          126.58602641021587        2.80209788419083       -3.58150541093865
H          128.45657107020125        1.71625083757454       -1.98356469376161
H          128.42490306713012       -1.48407484032091        2.21129902608696
H          126.54457851401705       -2.55305649231280        3.78127351445074
H          124.64443634340300       -0.30604334332433        0.75330500807038
H          122.83536642827978       -4.30595649718299        3.25676993923299
H          122.82280734771771       -5.69047347364587        5.32010522216969
H          122.28398620661835       -5.08817707498039        9.41107500917684
H          124.87154329816491       -2.57472594489729        7.42787697367659
H          124.87651183425156       -1.18257966238894        5.37050288010521
H          121.21211254458304       -2.29730684960838        3.92948478329425
H          119.34163034514971       -1.24273164641310        2.31036137738394
C          136.50565150773821        0.10178552815706        0.08653764458115
C          137.13171161947474        0.78195389258450       -0.97603675503715
C          136.48230790242451        1.43641315324657       -2.05469972077368
C          137.44607307732858        1.98592871540155       -2.85495979780496
C          138.71291975372012        1.68973139787818       -2.28134828393219
N          138.47218334195833        0.95135477659301       -1.15393280604847
C          139.97251649335195        2.05660664212816       -2.76981164621784
C          139.98664058576475        2.89166569027035       -3.99605337445788
C          140.59223388358143        2.41732662067850       -5.16237792082747
C          140.61047593368261        3.19186817705973       -6.31054847418840
C          140.01983573531922        4.44455057317143       -6.27708751906844
S          140.05265556921273        5.43711704206893       -7.72223704915549
O          139.94471683371441        6.82812761392112       -7.39251708911787
O          138.63626217146302        4.96848637497278       -8.36415872283931
O          141.10909863909612        5.01969951173139       -8.59508857893505
C          139.41623746744415        4.94444047861281       -5.13462264507270
C          139.39943900251100        4.15942511582328       -3.99348751425258
C          141.19971372001461        1.70482073524032       -2.20414637628461
C          142.48391792554935        2.15963011234265       -2.70791805086351
C          143.42312180139692        1.60674459469580       -1.91341855891885
N          141.37874109912565        0.91239487632687       -1.11272632820694
C          142.71135406988111        0.82483099616664       -0.92147608380185
C          143.36800122525270        0.07831096437582        0.07615809395841
C          142.74251964387702       -0.66429584730936        1.09518176989335
C          143.39156160690692       -1.43505398105947        2.09442565535896
C          142.42807774696945       -1.97310804798124        2.90262219932053
C          141.16171661220596       -1.53869972306299        2.42353671388098
N          141.40197216707165       -0.76007596813972        1.32406384568525
C          139.90216672104546       -1.85289514490576        2.94899794034172
C          139.89130432640914       -2.68502387262789        4.17735838996600
C          139.28781337532379       -3.94503455732667        4.16973058651689
C          139.28005545475705       -4.72802628062505        5.31234664648368
C          139.87653620986393       -4.23422103863033        6.46111813884944
S          139.88209616588026       -5.22429235418599        7.90811608684041
O          139.71568892913871       -6.60847554531985        7.57654225577061
O          138.49880848890314       -4.68641222274606        8.56625701391899
O          140.96174048627532       -4.85364965089060        8.77523771587823
C          140.48316108445928       -2.98928049076460        6.49974298169289
C          140.48941289657589       -2.21680458789850        5.35005761164084
C          138.67519065829103       -1.45112806327494        2.41871839588048
C          137.39141830930706       -1.75288037489593        3.02733146724071
C          136.45212332902446       -1.20859654004037        2.22681585320713
C          137.16365473232329       -0.56765038847462        1.13819651924926
N          138.49516546040059       -0.71924923876685        1.28499169331124
H          135.41425533152776        1.47262589548257       -2.19584507200426
H          137.29476506511480        2.53936733990539       -3.76724734869619
H          139.19338734437238        0.58122718743575       -0.54392291559903
H          141.03984608224420        1.43042059801167       -5.16977353034460
H          141.07820180725764        2.83459042211125       -7.21934128703222
H          138.40142543878684        5.53939631047295       -9.10588907438144
H          138.97541925600615        5.93341242391554       -5.13994850145134
H          138.94471507425158        4.53781955725308       -3.08538482930490
H          142.62543495242338        2.82289821614828       -3.54562273063415
H          144.49507087735728        1.70872681653520       -1.96646645643264
H          144.45924916215438       -1.55981719765762        2.17469438520716
H          142.57922660181737       -2.62159735268558        3.74999342102410
H          140.68095606081366       -0.32160532012591        0.76092587046561
H          138.83768816527092       -4.31751502216677        3.25702570626378
H          138.82521660048351       -5.71060830534656        5.31442661020302
H          138.35074863336229       -5.10266830576199        9.42414715750958
H          140.94425136843745       -2.63633648841575        7.41363821348907
H          140.94868715596684       -1.23521518772759        5.36254378957578
H          137.25026099131301       -2.29507700748275        3.94814052260479
H          135.38031926524897       -1.21838889667395        2.34313297903766
