276
 energy: -428.516814044312 gnorm: 0.000435343125 xtb: 6.5.1 (b24c23e)
Zn          50.23638691831139        0.01436022481849       -0.09671937281814
C           46.82389643568039        0.01436314145132       -0.14426473995259
C           47.43862219030289        1.21538945703393        0.18927978518172
C           46.74940450240093        2.42544584534750        0.54096508347934
C           47.69682851926454        3.35565129751629        0.81913283944984
C           48.97775922171122        2.72702959412853        0.63247202237352
N           48.78530838005622        1.42978661289865        0.25537612160654
C           50.21989226845765        3.33715578866759        0.84045197910593
C           51.46711253012835        2.71964098893868        0.69826090928264
C           52.73680790795525        3.36511606275479        0.88491633449836
C           53.69679079151617        2.43709645491106        0.64005003969770
N           51.68088154214073        1.41724193413454        0.33294901116862
C           53.02655802221187        1.21917419536160        0.29079425668126
C           53.67412508386899        0.01404142729595       -0.04536042840901
C           53.03579994147044       -1.19095913751507       -0.40008768801944
C           53.71601321228037       -2.38923922597360       -0.79468727771760
C           52.76366813803556       -3.31598713777069       -1.07212578879383
C           51.48890786856301       -2.69391804799328       -0.84473565000306
C           50.24634768931320       -3.31069204585755       -1.02881557506668
C           50.25144589061439       -4.74016748568521       -1.43070120932738
C           49.69346402687341       -5.13278722351288       -2.64499010019272
C           49.69549468005458       -6.47228787261990       -3.02554117809177
C           49.08258924161367       -6.87737645387277       -4.33927450632462
C           50.25817516089534       -7.41993058453654       -2.17903655972588
C           50.81977251245272       -7.04338646321585       -0.96032571303303
C           51.42398304527324       -8.08633428958434       -0.05890627221041
C           50.81479009175668       -5.70401319505354       -0.59289045393429
C           48.99866535520749       -2.69691384410557       -0.86725168825612
C           47.72258344203200       -3.34641807747322       -1.01112334119957
C           46.76807093253725       -2.41355709483300       -0.76817985460214
C           47.44797157842205       -1.18574713498853       -0.46362134966866
N           48.79629318217364       -1.39115257855878       -0.52664561646438
N           51.69176152387033       -1.39923325199457       -0.44732827915730
C           50.21214399665397        4.76401860796259        1.25473956754534
C           49.70593818089048        5.74242787726976        0.40036003439742
C           49.69521583679312        7.07902192335724        0.78431501627566
C           49.17252992271859        8.13534883125787       -0.15182235391973
C           50.19242185761872        7.43363230396754        2.03498092670474
C           50.69940761233578        6.46843610183254        2.89978453571679
C           51.21065558378969        6.85930769195387        4.26032929536284
C           50.70822321735264        5.13534880504287        2.50341828684626
H           45.73820250653343        0.01029051616832       -0.14508002577549
H           45.67664545811098        2.53546184325800        0.57459442441805
H           47.54721236459404        4.37611179960347        1.13400456141244
H           52.87441559092468        4.39871729156216        1.15910461757321
H           54.76655719565853        2.56150624685513        0.69039881504171
H           54.78638344166875       -2.49875833126439       -0.86352957378982
H           52.90986471706721       -4.32723795416027       -1.41619104562638
H           49.26971719060190       -4.38387675110772       -3.30532861424767
H           49.27905307399904       -7.92726647898924       -4.55588251039234
H           48.00151182466274       -6.72627700890680       -4.31089129898289
H           49.48514603863359       -6.27025458797853       -5.15157688498482
H           50.26221518739081       -8.46587667029790       -2.46838720216482
H           51.80590276889082       -7.63716054526995        0.85766103990837
H           50.67750625931799       -8.83748123723320        0.20538981894322
H           52.24617094477205       -8.59401583623398       -0.56666649114530
H           51.23627291560241       -5.39968758247170        0.35898942446159
H           47.58010263934818       -4.38729045748669       -1.25416805471670
H           45.69632697575998       -2.53669105712263       -0.78362295562194
H           49.33244147283870        5.45528424824932       -0.57659810066110
H           48.69937664231104        8.94569317193928        0.40349633822588
H           48.44753802040756        7.71387471036104       -0.84833640386926
H           49.99623627576291        8.55791676466212       -0.73187073685435
H           50.18443363180687        8.47531049614510        2.33929670493513
H           50.38993434784184        6.85151680323408        4.98138533362185
H           51.63572624090913        7.86314284016762        4.24183440329033
H           51.97190828248346        6.15930185195350        4.60523423203002
H           51.08907560716874        4.37240754629134        3.17366062802276
Zn          82.98571091941245       -0.02209697318190       -0.08071594491254
C           86.39582879415788        0.02474251696792       -0.13421690872334
C           85.77361181317957       -0.82394392346542       -1.04215790271383
C           86.45542245689904       -1.68748540597267       -1.96535356691893
C           85.50256351381729       -2.36457234622795       -2.65383000097156
C           84.22542640063951       -1.91787687238085       -2.16378445500378
N           84.42574597749123       -0.98738161564311       -1.18593190204806
C           82.98045915639428       -2.39053193699581       -2.59451613374320
C           81.73763366921132       -1.99323796586832       -2.08970226820146
C           80.46271961109846       -2.45544579275296       -2.56458754595337
C           79.50960380241406       -1.81120403848959       -1.84392537554655
N           81.53411719132525       -1.07364509663327       -1.09591801899158
C           80.19017668530878       -0.94365321098882       -0.92763730519006
C           79.55218324605546       -0.06381766500001       -0.03255786366666
C           80.19542877140904        0.82705712249077        0.84783445757472
C           79.52022315988707        1.72324053913595        1.73993561230917
C           80.47746776905929        2.39223237320514        2.43203506388276
C           81.74947248096980        1.90456019498178        1.97514718284065
C           82.99545499037886        2.34024777632142        2.44001969936073
C           82.99589199998866        3.33726833965041        3.54042379498549
C           83.55660059452595        4.59835458275504        3.35348495094622
C           83.55679770183593        5.53331095776084        4.38545969485808
C           84.17507107735047        6.88820817669971        4.16768581334297
C           82.99298342054242        5.19656211548259        5.61025457497719
C           82.42820641103100        3.93878364028133        5.81337825098490
C           81.82503584282075        3.59364444270710        7.14844652397879
C           82.43215177527435        3.01523252468388        4.77614241882498
C           84.23941009976835        1.91160527703757        1.96213946460605
C           85.51993472419113        2.33399388193041        2.46498746992088
C           86.46816506481207        1.69079487963504        1.73869146263839
C           85.78006853418275        0.85842077644376        0.79190981533402
N           84.43320864537689        1.01022456462517        0.95600020660662
N           81.54039061058882        0.96262473691625        1.00391017342299
C           82.97812321355116       -3.39345449016713       -3.69042257176495
C           83.46553947026997       -3.05195034274417       -4.95092220008552
C           83.45942319265986       -3.97986035173118       -5.98703277030180
C           83.95873525668505       -3.59375128855963       -7.35333199475077
C           82.96477794213712       -5.25916350604084       -5.75332769852038
C           82.47752647718916       -5.61654384510386       -4.49927475671243
C           81.96712422176851       -7.01117886134332       -4.25467179618704
C           82.48518897498499       -4.67924046659209       -3.47217106499469
H           87.48150965215474        0.02913849218046       -0.14218951540408
H           87.52744302219998       -1.76276063635224       -2.06104648208795
H           85.64619380246599       -3.11113641884331       -3.41861554719339
H           80.31698570375600       -3.17126679724021       -3.35757714193729
H           78.43837083793980       -1.90248872935203       -1.92889672911877
H           78.44965924461445        1.82476919978158        1.82104063530853
H           80.33646072650419        3.15757425130614        3.17821465138619
H           83.97988864231094        4.85751579258777        2.38907136868439
H           83.94165257583101        7.56207138343734        4.99185900691068
H           85.26074009571539        6.79604867772879        4.09396866943848
H           83.81165956864596        7.32999038236251        3.23873057078455
H           82.98987653932829        5.92026468011189        6.41893308939486
H           81.37971142365899        2.59911241011921        7.13089548583418
H           82.59042464364505        3.61813423520173        7.92648541245359
H           81.05273093636630        4.31752662159198        7.41419513611656
H           82.00820839113076        2.02816832596052        4.92558757202550
H           85.66963817157077        3.02650592153396        3.27789246804904
H           87.54074551184233        1.76008268935253        1.83259665419922
H           83.83631552193266       -2.04755347481692       -5.12450030028365
H           84.36324328691896       -4.45922860482964       -7.87858411849538
H           84.73301487334213       -2.82952917339131       -7.28220496203006
H           83.13623903312681       -3.18935068569344       -7.94791681364706
H           82.95818303108193       -5.98719196801674       -6.55810760636635
H           82.80195680992941       -7.67780210818762       -4.02641221540739
H           81.45840204850852       -7.39744472431072       -5.13847153087015
H           81.27554073693317       -7.03074159483711       -3.41231462287385
H           82.11910021879474       -4.94963873399454       -2.48769253300425
C           55.08443227025607        0.01439839589960       -0.03615076784450
C           56.30141175690857        0.00799293958557       -0.02378718179425
C           66.00721109834809       -0.07022378988770        0.04588833515293
C           67.22453147815942       -0.07778126925901        0.05184230755006
C           76.92531113912091       -0.06927906873073       -0.01705726504669
C           78.14168847368144       -0.06747616407911       -0.02337281688523
Zn          61.15493307405611       -0.03071047150237        0.01538480504297
C           57.71122964876746       -0.00192832143894       -0.01067897883200
C           58.36757712594174        1.21704996603206       -0.27200472307258
C           57.70585536406976        2.46051426142210       -0.53467594291002
C           58.67250467296835        3.38908265189536       -0.75103325438414
C           59.93635909274319        2.71769697152858       -0.63483626385394
N           59.71451325937176        1.40032791196799       -0.33437293746154
C           61.18850771574701        3.32166918839681       -0.79061189909506
C           62.42807499078098        2.69016143202315       -0.64488971177160
C           63.70423118460284        3.30985593222213       -0.86605676537927
C           64.65203170163014        2.36538554746817       -0.63527210518205
N           62.62375775071783        1.38012729284547       -0.29719424312753
C           63.96604609204635        1.15978383308561       -0.27615611075563
C           64.59851867174207       -0.05982819749057        0.03791887371361
C           63.94176224889852       -1.26850665361056        0.34391547797169
C           64.60266159001853       -2.48571336862193        0.71075753784646
C           63.63597228669995       -3.41337118120252        0.93133921669399
C           62.37329281578066       -2.77188568029604        0.69500151121311
C           61.12118923734762       -3.38174746300467        0.82557780225764
C           61.10755101857059       -4.82215943448181        1.18916068528646
C           60.53872010763959       -5.23809147304530        2.39130416416306
C           60.52504000217795       -6.58542777525040        2.73885245912856
C           59.92945672695646       -7.02144988340855        4.05052088152340
C           61.08417557481919       -7.51839458302529        1.87219270300360
C           61.65399697825353       -7.11886128548695        0.66575253881308
C           62.26152664177911       -8.14284077688037       -0.25499099580203
C           61.66518879728869       -5.77006230823158        0.33109108218127
C           59.88161634890861       -2.75711448056960        0.65121326180107
C           58.60511498708297       -3.40692421400572        0.75041387217798
C           57.65735670503503       -2.46306477852987        0.51705782173610
C           58.34357130826198       -1.23130664624721        0.26199038985307
N           59.68614287754143       -1.43689794968029        0.34475971473743
N           62.59569906581483       -1.46566462843732        0.34906758790329
C           61.20444576282279        4.76262481752003       -1.15184702127643
C           61.76470759959136        5.69981480512765       -0.28563063037036
C           61.77919620607160        7.05050106819734       -0.61869198144363
C           62.39719995217289        8.05432915814952        0.31713957766394
C           61.23496213503245        7.45954196744241       -1.83192512413341
C           60.67367552420330        6.53536686346878       -2.70887670909772
C           60.10749952701580        6.98889491165241       -4.02753500651571
C           60.65952518581515        5.18902138935569       -2.36260476489213
H           56.63705837281851        2.60111024542143       -0.54997916028414
H           58.54237592012393        4.43829308150286       -0.96219674496190
H           63.85464280634282        4.33250969236902       -1.17255772905968
H           65.72236250542197        2.46810506618750       -0.71402182456478
H           65.67024413609209       -2.60681350168166        0.80074099821818
H           63.76500750803244       -4.43835982952762        1.23979975246338
H           60.11657755359001       -4.50033747699348        3.06500816787360
H           59.59389278408910       -8.05745446741538        4.00066576054449
H           60.67796750011100       -6.94340835171882        4.84242488317008
H           59.08379510876104       -6.38864208219893        4.32122123902997
H           61.07458956093269       -8.57089201333894        2.13668070705846
H           62.46700679233296       -7.71375230705949       -1.23554638416785
H           61.59127517003013       -8.99483444043228       -0.37715607700195
H           63.20078259556032       -8.51075952032694        0.16363218570171
H           62.09377283032054       -5.44748327382131       -0.61154225043489
H           58.45436233946356       -4.45319526110245        0.96246076695350
H           56.58625546213365       -2.58595568350662        0.51712677558994
H           62.17505564684027        5.37075234408872        0.66290347423873
H           61.95705949461696        9.04150583575712        0.17496992935185
H           63.47010275105234        8.12902408750726        0.12520150003115
H           62.25973727814394        7.75227118613078        1.35570963314648
H           61.24489434648672        8.51186405830989       -2.09701660862614
H           59.62978266142666        7.96414289299687       -3.92893681915768
H           59.37614284132881        6.27368074887545       -4.40411072928525
H           60.90884127067735        7.07762863982976       -4.76471042471463
H           60.23475488318535        4.45808943657207       -3.04204025195157
Zn          72.07554324357395       -0.07534655939825        0.02392913425445
C           68.63332593815133       -0.07890442971279        0.04926979178906
C           69.27806804072297        1.15258310640717        0.28126326606157
C           68.60507202067042        2.38309814588922        0.57405993381821
C           69.56233428014716        3.33220109377015        0.73692713856775
C           70.83140049188825        2.68997873451171        0.54058030767568
N           70.62217961562111        1.36293144050470        0.27517228637134
C           72.07691637127374        3.32018285864964        0.63343012164669
C           73.32281165938414        2.69628119442830        0.50883840609307
C           74.59366600246021        3.36312396709749        0.56007865561970
C           75.54991667930535        2.41461499305432        0.38824787077089
N           73.52965031053866        1.36000654142724        0.29446282622787
C           74.87380120997628        1.16209044500653        0.22141457404902
C           75.51521299196797       -0.07043442123122       -0.00692123366963
C           74.87289567697512       -1.30420763210512       -0.22566322695339
C           75.54981768857964       -2.55371406997231       -0.41098514575467
C           74.59344710541453       -3.50498058930493       -0.56619151103626
C           73.32154404320373       -2.84302408698656       -0.48558788327598
C           72.07528798179226       -3.47117057451247       -0.58301242958533
C           72.07328400415055       -4.93575834702218       -0.83019436245033
C           71.52704985358876       -5.80434108499676        0.11246191766241
C           71.52354804535966       -7.17829227161655       -0.10912687353955
C           70.95265459071206       -8.10756752431264        0.92806302817510
C           72.06861512767426       -7.67977176797304       -1.28586020685628
C           72.61507150203695       -6.82420519576890       -2.23979055947177
C           73.20392030637673       -7.38820041799063       -3.50487107471430
C           72.61737148279343       -5.45462974422428       -2.00537730762760
C           70.82981684904694       -2.84491102398409       -0.46531706552884
C           69.55903463010337       -3.49143123431966       -0.63515054444101
C           68.60234578683445       -2.54367441771994       -0.46141627051506
C           69.27724398010471       -1.30996071997450       -0.18687467934657
N           70.62178768102822       -1.51728450784139       -0.20193342858913
N           73.52827321670415       -1.50662195864311       -0.27172837274916
C           72.07501285662511        4.78472729838896        0.88078168513325
C           72.64301145621248        5.30652934959890        2.04229536508113
C           72.63961184108886        6.67723172947140        2.27634097804438
C           73.26636949215835        7.23761379879056        3.52468885127009
C           72.06774866276658        7.52898080732465        1.33556793632115
C           71.49744615364911        7.02380603820099        0.17123810831895
C           70.89927951138954        7.95348474975030       -0.85007302835976
C           71.50303741997442        5.65072205128431       -0.05002479149181
H           67.53648797001823        2.49886396919720        0.65824384111604
H           69.42313173306778        4.37237220607237        0.98399380857055
H           74.73473338764300        4.42331755049875        0.69606000712393
H           76.61974960082222        2.54787502938867        0.36268178720067
H           76.62050305345841       -2.68279518656364       -0.40953155416331
H           74.73575259876779       -4.56393032201836       -0.71023966977870
H           71.11464226221452       -5.40295840611661        1.03180839505660
H           70.67981463939624       -9.06568237617467        0.48561435942525
H           71.69281719405701       -8.29070783454290        1.71035280940819
H           70.06972430058525       -7.66986431203588        1.39498651867133
H           72.06669241739768       -8.74993447743261       -1.46610187444158
H           73.43793067840112       -6.59510417828003       -4.21475868783382
H           72.50719232366873       -8.08480924446433       -3.97348335331261
H           74.12341298151442       -7.93259008653530       -3.27970096328431
H           73.02746242677946       -4.77702726879142       -2.74628811742405
H           69.41798524307842       -4.53357218150338       -0.87270359900781
H           67.53262590559346       -2.66244553935800       -0.52508483516310
H           73.07263100490097        4.63195728429650        2.77488710806321
H           72.72898068001616        8.12339587229593        3.86447095536690
H           74.30075525240639        7.52553474572713        3.32302644780010
H           73.26949168489710        6.49741737061911        4.32490900119974
H           72.06350285714262        8.59937414462973        1.51434924158962
H           70.51458820356231        8.85656491177019       -0.37568955602454
H           70.08832238203721        7.46548881461278       -1.39122163094346
H           71.66163451126276        8.24862636861972       -1.57479633142814
H           71.07162763901741        5.24615531770030       -0.95918414846524
