82
 energy: -140.735581868390 gnorm: 0.000694753615 xtb: 6.5.1 (b24c23e)
C            1.79021777517396       -0.08270637780819       -0.01160117272969
C            2.41767727299025       -1.32040445382278       -0.07359982322136
C            1.80649078619066       -2.60559198404946       -0.13985213524384
C            2.80051675609010       -3.54219444828035       -0.18427020617389
C            4.05014436513133       -2.85913604051108       -0.14693158203507
N            3.76808859578004       -1.52529798470319       -0.08060916208604
C            5.32020442110686       -3.42314844785297       -0.17285127291855
C            6.53732391998262       -2.75817388591910       -0.13842441651222
C            7.81849306542448       -3.44099147728843       -0.17226976136229
C            8.76389842062177       -2.47979401395303       -0.12457489200232
N            6.72459390901187       -1.41183988045474       -0.07128214709037
C            8.05623030433691       -1.21349791173451       -0.06052616795735
C            8.70707654476189        0.03669570560565        0.00206155174596
C            8.05476377625392        1.28234261963273        0.06560109549956
C            8.66092712850937        2.56600498376544        0.13219829801854
C            7.66313155237985        3.50002175373406        0.18242231305782
C            6.41757073862922        2.81276938558489        0.14709937912014
N            6.70681583864938        1.47670957530029        0.07649971446765
C            5.14842604873375        3.37680115393973        0.17725046542968
C            3.93033418670699        2.70936377739311        0.14068687821415
C            2.64293155476213        3.38616935290846        0.17458885150625
C            1.70323943444167        2.42098573207004        0.12086027772569
C            2.41744520367068        1.15582910850511        0.05479569268836
N            3.75480030367143        1.36904862013387        0.06878291829494
H            0.70540032503320       -0.09298926414335       -0.01486817230735
H            0.74163823109541       -2.77587812031543       -0.15108821347475
H            2.69237954473249       -4.61389061621968       -0.23823628455268
H            4.46149694338228       -0.78582375877661       -0.04172355838930
H            5.35494542004043       -4.50655724761361       -0.22700597089880
H            7.94349520830710       -4.51112460805166       -0.22555336140970
H            9.83701319014865       -2.58646134366841       -0.12984998423998
H            9.72509585818974        2.73950123394716        0.14064855252992
H            7.76853130924865        4.57171798455909        0.23896514224417
H            6.01640526064311        0.73412750627289        0.03821553358928
H            5.11466646307266        4.45998519463734        0.23493767794021
H            2.51275796836767        4.45567406846046        0.23173627509097
H            0.62897784530732        2.52067881649133        0.12404274867419
C           27.36236063212335        0.07662346070520       -0.03742382997388
C           26.73389392846902        1.29640069058323       -0.25334577460661
C           27.34414425974934        2.56294389134112       -0.48379466259939
C           26.34950021095997        3.48708914987871       -0.63852462266116
C           25.10040220572888        2.81438758730217       -0.50915841801651
N           25.38338899021577        1.49920540905816       -0.27823167534387
C           23.82989168928171        3.37062695728905       -0.59999716114084
C           22.61340564422077        2.71434810498447       -0.48063640652378
C           21.33155719232392        3.38640163335072       -0.59890080925017
C           20.38710915947337        2.43757984306301       -0.43236860283021
N           22.42746529901645        1.38676604009899       -0.24583717912652
C           21.09601109336164        1.18964564656031       -0.21205853484625
C           20.44646215327511       -0.04348760525402        0.00708243807933
C           21.09990738529686       -1.26972372512502        0.23171734380434
C           20.49467223532287       -2.53411949095825        0.46555726462355
C           21.49311566562992       -3.45246199720233        0.63942547031868
C           22.73817040491724       -2.77458245808262        0.51576367663671
N           22.44796335107210       -1.45959210409712        0.27005973274268
C           24.00778146815620       -3.32868992334899        0.61975950834841
C           25.22520846022536       -2.67129326890899        0.49223510880540
C           26.51330712880732       -3.33721495805419        0.61029882192052
C           27.45192159238844       -2.38773075495478        0.42329152280502
C           26.73636627099522       -1.14261037810478        0.19361231904508
N           25.39927815015456       -1.35231799408708        0.24235583547195
H           28.44713275881205        0.08615949745565       -0.04871304941145
H           28.40884452483161        2.73009014043778       -0.52268304506935
H           26.45693791883791        4.54365538352092       -0.82631451141153
H           24.69032287956854        0.77081809537673       -0.14312045077912
H           23.79417977067990        4.43895434737552       -0.78789860142545
H           21.20550706918003        4.44142175802741       -0.78515995949466
H           19.31389409621054        2.54154454446910       -0.45172821731003
H           19.43062549982015       -2.70610161661294        0.49476212489164
H           21.38847159732596       -4.50760237081387        0.83581504020261
H           23.13811702124572       -0.72803268523027        0.13564217368488
H           24.04252430574723       -4.39462926662727        0.82055714245536
H           26.64466196787846       -4.38949184382235        0.80907115845686
H           28.52626941933115       -2.48592342053103        0.43424857335892
C           10.11066899256749        0.04919127469428        0.00128859216947
C           11.33548855264119        0.04330549669504       -0.00011919634593
C           12.67755541893320        0.03014781618107       -0.00066376036100
C           13.90827247922590        0.00576960471905        0.00038528470594
C           15.24545237041837       -0.01614159601139        0.00076325114319
C           16.47603818022971       -0.04040356319753        0.00097565733059
C           17.81804016979664       -0.05423750259328        0.00211342194259
C           19.04283896497816       -0.05745855732313        0.00942292434558
