474
 energy: -821.133418030121 gnorm: 0.000857964398 xtb: 6.5.1 (b24c23e)
C           61.28990072567352        0.18022751770011        0.04660444235508
C           61.92181274251555        0.17003204693332        1.28339918060391
C           61.30254690799538        0.16922372783337        2.56530497258394
C           62.29008506928788        0.15639117573887        3.50968475061876
C           63.54389499970882        0.14627470160544        2.83480599844082
N           63.27149132117199        0.16055931810323        1.49616742854803
C           64.81655168793939        0.13143814022567        3.41235542387010
C           66.02375516081050        0.09944279745476        2.71471553070276
C           67.32173937433122        0.03716037318639        3.36211149767248
C           68.24165944180831        0.04687341767615        2.37470258849608
N           66.17649045483616        0.14744539774681        1.36224086854703
C           67.50364612834585        0.11550882824356        1.12797241405121
C           68.13225404926752        0.14763900193593       -0.13418173742065
C           67.47439868958828        0.19256845098843       -1.37770597292835
C           68.08799281704248        0.22878291138321       -2.65857167874763
C           67.09716353555667        0.26202476393699       -3.60009290127883
C           65.84679335543279        0.24673683204890       -2.92170136788664
C           64.57508890935502        0.26741598066815       -3.49894519711079
C           64.52415603011873        0.26729466524431       -4.99254768013537
C           64.67880863644847        1.40291410896474       -5.79196701945728
O           64.87366236691052        2.67111563378780       -5.34194329620256
C           64.48611564580385        3.10462187833752       -4.05079434073683
C           64.66664275275390        1.28223224269847       -7.18736126061214
C           64.48986596978173        0.04939721286799       -7.78148564541021
C           64.31547585618254       -1.09135580175955       -7.00693867361784
C           64.33616354604301       -0.97921070983444       -5.62145325760866
O           64.19505949737001       -2.03760363926564       -4.77850141411390
C           63.96795068185804       -3.33479965718040       -5.29161412135078
C           63.36636885784387        0.22281736036426       -2.79963380459572
C           62.06141468009284        0.21987808157832       -3.44159315907871
C           61.14797056051880        0.19920409755450       -2.44979170372962
C           61.89472121452305        0.19266755158499       -1.20381764527964
N           63.22732055587012        0.21000263447482       -1.45285452723722
N           66.12683292230481        0.20768892946870       -1.58055962159843
C           64.85932698982853        0.05327261296657        4.90561489049156
C           64.90937883760149        1.14983031777188        5.76980199622143
O           64.92931464666258        2.45967022086777        5.41125548451295
C           65.17479415086348        2.91694514487823        4.09501544873965
C           64.91215422142743        0.94421409231607        7.15651670308777
C           64.87122411597402       -0.33220113574799        7.67739348410030
C           64.82705967971333       -1.43848152669981        6.83694101024912
C           64.81769997551626       -1.24129950932136        5.46137419765901
O           64.76189106769534       -2.25578243518892        4.55614527411174
C           64.73957913002916       -3.60051758290708        4.99051559748453
H           60.20494977165629        0.17849273452885        0.06895579053821
H           60.23662406817741        0.17827416110310        2.72883310018325
H           62.17258599858298        0.15263529959702        4.58139209392685
H           63.97408040105542        0.14068860271033        0.76486918099833
H           67.47781491036810       -0.01403076055670        4.42780832636452
H           69.31640245587381        0.00926858896548        2.45444906167578
H           69.15302505088711        0.22823545529386       -2.82618019936726
H           67.21252970368482        0.29197175956996       -4.67140188258961
H           65.19398812403453        2.77265044772655       -3.28350156880386
H           64.48686782216789        4.19689343007899       -4.08562022792195
H           63.48092073776491        2.75320763079582       -3.79508800568305
H           64.79604638581984        2.17851036586114       -7.78065786869422
H           64.47985993087578       -0.03262389245082       -8.86246437237268
H           64.17299171239179       -2.05023167247697       -7.48670448375347
H           63.87123835317823       -3.99142692784362       -4.42496623012836
H           63.04366339311987       -3.37712818847647       -5.88042402390089
H           64.80746206841420       -3.67573175034761       -5.90955361091187
H           61.89856900172656        0.22823813756866       -4.50761055386872
H           60.07153159448504        0.18880624051177       -2.52182355150966
H           65.42626631989685        0.17194964976844       -0.84762514894290
H           66.12503100715762        2.53361569045305        3.70808148926686
H           65.22818082318655        4.00621363944990        4.16219623105925
H           64.36474149406618        2.64092244160610        3.41141957626527
H           64.94640383236874        1.81301232547568        7.80160970744457
H           64.87468967435169       -0.47735564866757        8.75175527631646
H           64.79598359185282       -2.43394646445063        7.25872501724215
H           63.85066660365429       -3.81235874313611        5.59717414982442
H           64.70975778675928       -4.21125532997855        4.08623047650963
H           65.63910821102819       -3.85191733818315        5.56527834094757
C          161.29549497427337        0.13155258003457       -0.17449902178101
C          160.68231455862869       -0.00071113523739       -1.41371967886019
C          161.32051149797238       -0.11577830143661       -2.68110357969333
C          160.34717483242812       -0.22277829934451       -3.63425884439026
C          159.08366989455934       -0.18048256173137       -2.97912420904887
N          159.33607392420959       -0.04054023084652       -1.64378606567164
C          157.81964441641551       -0.26194033811290       -3.56985926536801
C          156.60330744266997       -0.24861526194656       -2.88782835047801
C          155.31605703973304       -0.39272596580879       -3.54332642298818
C          154.38206356758400       -0.30912900286941       -2.57287748263912
N          156.43046221993495       -0.07879687315331       -1.54756079879598
C          155.10080074202475       -0.11150510227818       -1.32861625453878
C          154.45288634829427        0.03596043800348       -0.08438223332393
C          155.09132624831730        0.21635537912516        1.15692216762814
C          154.45837956761542        0.37267155895824        2.41910424076242
C          155.43467673860201        0.51347068109461        3.36597717864446
C          156.69515681702381        0.44698816431120        2.70968307750611
C          157.95808488744848        0.53930507271159        3.29949517126014
C          157.98669001247097        0.68543798111576        4.78649662264011
C          157.79379843952069        1.88850663689186        5.47062219056098
O          157.58130872195335        3.10344538790568        4.89854719286680
C          157.97215009577309        3.41731990902651        3.57422159184770
C          157.78481083202846        1.90247404317672        6.87128050368811
C          157.97860587852944        0.73692917199114        7.58396276549976
C          158.19221415271329       -0.46827958957522        6.92547766678141
C          158.19268468777832       -0.48995241037268        5.53553117374514
O          158.37246143015733       -1.62060957813278        4.80070387358055
C          158.61856092747971       -2.85708305317883        5.43941366357119
C          159.17728340165542        0.43755331171594        2.62467630918201
C          160.47281109918433        0.50904570680660        3.28156029680934
C          161.40064132931798        0.39640825982807        2.30954241119768
C          160.67212675246020        0.26091351060306        1.06009632288828
N          159.33595484035172        0.29246402857632        1.28780075775912
N          156.43549591922167        0.27032029112348        1.37552856640786
C          157.79741682608116       -0.47258196680779       -5.05063619244320
C          157.75710604832645        0.54320175141196       -6.00891157480649
O          157.72957539661778        1.87946401164995       -5.76733004855881
C          157.45859804302947        2.44947525918012       -4.50100645462567
C          157.77241832599572        0.21579362947349       -7.37188976640383
C          157.82116832729037       -1.10165924536648       -7.77716556673336
C          157.85493652136660       -2.12925460601752       -6.84166976242719
C          157.84611032775044       -1.81117018480721       -5.48894544751000
O          157.88999309328887       -2.74123199819415       -4.49658283670404
C          157.90285958887156       -4.11948850916023       -4.80910063112472
H          162.38065656101560        0.13558594571435       -0.18103779196812
H          162.38866338497354       -0.11420941642284       -2.82961497538444
H          160.48046712446407       -0.32490326258872       -4.69923860056878
H          158.62277428821105        0.00180816428711       -0.92389195200324
H          155.17612241451820       -0.54437513213532       -4.60165443569042
H          153.30943298099433       -0.37360804330364       -2.66281386166755
H          153.39102211193770        0.37414611985363        2.57132202610544
H          155.30292580015902        0.64886979000500        4.42721577367515
H          157.27430667192030        3.00328705176990        2.83827195318048
H          157.95583485465778        4.50780714719943        3.50446784918581
H          158.98390366442149        3.05782013859727        3.35894383743345
H          157.62552129087521        2.84824914351576        7.37349012195539
H          157.97146432369405        0.75914736784433        8.66785084284854
H          158.34810559964896       -1.37305432735769        7.49732041779396
H          158.74573751011573       -3.59092510394515        4.64134599762237
H          159.53251053961151       -2.82126916893182        6.04460120757641
H          157.77541715623997       -3.15724445147910        6.07337441828778
H          160.62026560217032        0.62501307731941        4.34352629652822
H          162.47597577104096        0.40133566555548        2.39709308273084
H          157.14737457010344        0.17024038087389        0.65962883926388
H          156.50363679802427        2.09545755802509       -4.09788214642994
H          157.40082688848128        3.52819201541485       -4.66502366997721
H          158.25790290709463        2.24050030019641       -3.78182659153219
H          157.74506344307201        1.02400804066725       -8.09174647756031
H          157.83155809680645       -1.34125575742758       -8.83443142406433
H          157.89220051001192       -3.15807671843281       -7.17325525855028
H          158.79739939194229       -4.39375044051173       -5.38148101869006
H          157.91335514732009       -4.64733004838336       -3.85364383262648
H          157.00834394572161       -4.41176135594651       -5.37219451429099
C           69.53751159130735        0.13343331308875       -0.16739846389416
C           70.76186751367092        0.12529648931445       -0.19582813980033
C           72.10482368915827        0.11627749616446       -0.22177053337713
C           73.33536370622633        0.11053229500372       -0.24622872386597
C           74.67364607809749        0.10367195938829       -0.26608015184821
C           75.90445884592526        0.09584946865892       -0.27967370253209
C           77.24733329854466        0.08792307022464       -0.29036536438470
C           78.47222638436141        0.07789814448971       -0.29892754852600
C           88.17950190950867       -0.01053380840709       -0.26359668223732
C           89.40505283478979       -0.01748329766359       -0.26620380878395
C           90.74695607236472       -0.02133661387095       -0.27013276418087
C           91.97855479992651       -0.02360900257662       -0.27721926907208
C           93.31578888950393       -0.02551750163665       -0.28488002180263
C           94.54739223851632       -0.02491432208825       -0.29313765391340
C           95.88921890664753       -0.02082247100977       -0.30089888717066
C           97.11484679919612       -0.02031534566625       -0.30548353936923
C          106.82543372616124       -0.02983679425786       -0.22101269661718
C          108.05097737041174       -0.03728238720809       -0.20924405795533
C          109.39279387985157       -0.03938399872354       -0.19802665943474
C          110.62445641076880       -0.04215854999021       -0.19019904339716
C          111.96167635472941       -0.04561261566010       -0.18511031682583
C          113.19336195631935       -0.04167689333144       -0.18105190901882
C          114.53519910321803       -0.03801369990423       -0.18617894739004
C          115.76084781257921       -0.04042617933559       -0.19476788298172
C          125.47224281458131       -0.04851886495285       -0.21002300523452
C          126.69778148397141       -0.04855483979043       -0.22545087409776
C          128.03946878335250       -0.04295429384011       -0.24570987046581
C          129.27086235791378       -0.03567617245917       -0.27075367663053
C          130.60784893440308       -0.02439710689362       -0.29399185956186
C          131.83915342339199       -0.01412273322759       -0.31849780637655
C          133.18087481424240       -0.00541096660946       -0.33717274490440
C          134.40648408024433        0.00043180415722       -0.34727277929078
C          144.11309685808504       -0.03218149412205       -0.20733445323197
C          145.33790549756006       -0.03843854971127       -0.18484835473566
C          146.68051777644931       -0.04088451450429       -0.15949450178190
C          147.91114533507067       -0.03694039261209       -0.13185689036741
C          149.24927203136704       -0.03013290504759       -0.10862071401852
C          150.47995544416395       -0.01940228894038       -0.08923097618250
C          151.82300698778016       -0.00893565958354       -0.07874718273746
C          153.04764410867563        0.00763920566361       -0.07305006433132
C           79.87687700490619        0.06982990803814       -0.30538286972820
C           80.51696954195531        1.27241098134241        0.05060601278742
C           79.88501440859422        2.48834509724027        0.42091449614677
C           80.86389003283492        3.40473209373080        0.69025453603171
C           82.12258983165401        2.77565626067589        0.48779867449347
N           81.86144704260622        1.48731806870901        0.10515251207937
C           83.38692541986647        3.34780037614989        0.66154692206210
C           84.60920739141088        2.70095999915659        0.48546294725994
C           85.89553184050723        3.35475654660669        0.64782811465801
C           86.83509544435097        2.42221656613573        0.39009150455500
N           84.78909002553796        1.39938468460906        0.12594550149920
C           86.12104344773132        1.20241704210601        0.06555918728614
C           86.77592450808416       -0.00186646546065       -0.26583057537222
C           86.13717454157251       -1.20913621657464       -0.61142613650564
C           86.76682700180598       -2.43402252557797       -0.95349826859142
C           85.78657385979112       -3.34588456284367       -1.23643070691258
C           84.52981436002305       -2.70216102703531       -1.07469168138259
C           83.26520269082687       -3.26502710030540       -1.27400460268373
C           83.24388679224317       -4.70937532725656       -1.66019594340786
C           83.06043655293534       -5.63976043173651       -0.61833959480139
O           82.89826598449805       -5.09800985768515        0.61891102332084
C           82.66740091877206       -5.92884371347134        1.73865858357049
C           83.06362487131719       -7.00781744993070       -0.86479018065315
C           83.25850216169577       -7.46100069499005       -2.16419200980547
C           83.43289085665370       -6.56799093478389       -3.20143599377979
C           83.42108868735893       -5.18789911140313       -2.96100263969132
O           83.61667688736657       -4.42737314662542       -4.07035297707371
C           83.24013469918179       -3.06513991999262       -4.15795081195313
C           82.04293185959141       -2.62310269406440       -1.08177005594722
C           80.75883142730810       -3.27044412124694       -1.28015924738224
C           79.81733079347676       -2.34107117695446       -1.01383550400552
C           80.52916033922327       -1.12917439132170       -0.65808350898096
N           81.86168528136952       -1.32526249197336       -0.71226910891276
N           84.79262444090189       -1.41244321247699       -0.69487056842193
C           83.40922717175525        4.78216120010246        1.06870277977102
C           83.00619790255217        5.77871446424165        0.16995273921000
O           82.60851238781513        5.34663021423683       -1.05636153550369
C           82.21808625594288        6.27407737780517       -2.04942194682006
C           83.03550366443802        7.12093457866815        0.54652874395331
C           83.46127605844561        7.46004269933288        1.82189457774325
C           83.85826005805059        6.49067182741274        2.73036293162400
C           83.83363126698465        5.14839622806053        2.35310729588449
O           84.19104848556834        4.12650795405034        3.17360947669145
C           84.66395408781955        4.38822650982880        4.47986253558428
H           78.81780187228006        2.63204477820040        0.47384330785398
H           80.73073277455873        4.42754034150346        1.00267924545873
H           82.57022231744601        0.79108140961079       -0.09969345602582
H           86.03543531243066        4.38852275911468        0.91938787256167
H           87.90861798306989        2.52320050331128        0.40646392137429
H           87.83359137361315       -2.58810448554671       -0.97748172519813
H           85.91528888176268       -4.37485166861145       -1.53054694972114
H           82.55189462325299       -5.26038455210161        2.59389380209771
H           83.51303769385802       -6.60317050517112        1.92064440971447
H           81.75171542508215       -6.52011849943829        1.61739475317273
H           82.92369242273664       -7.71941839996655       -0.06232981694663
H           83.26720033443480       -8.52687152361106       -2.36220929101326
H           83.57910585433071       -6.90961898036458       -4.21828760529405
H           83.26547474615612       -2.81302825994587       -5.22092274951233
H           82.22751399489073       -2.90378304986067       -3.77353293885316
H           83.94118420588254       -2.41644702515572       -3.62164032060636
H           80.62461013895395       -4.29821578940098       -1.57718378912484
H           78.74395563258599       -2.43946077400887       -1.04679288475815
H           84.08593648614209       -0.71351079318402       -0.49158613879419
H           83.03429302541035        6.96302668114165       -2.29771245901807
H           81.33880889681680        6.85053092857259       -1.73742250048078
H           81.96498350920601        5.68457709420919       -2.93255896132405
H           82.73054121137463        7.89828938808727       -0.14107943070274
H           83.48261434147024        8.50387200146322        2.11504085909558
H           84.18153577393964        6.78402684429195        3.72007980326341
H           85.57151686986556        5.00353168069180        4.46185675584608
H           84.89803856892082        3.41633585216987        4.91806676975804
H           83.90099289081195        4.88474566545614        5.09152080351516
C           98.51819424207083       -0.01634289505407       -0.31065736770568
C           99.14803002333161        1.19545534584033        0.03491478278170
C           98.50494001350336        2.40841681436459        0.39451509824169
C           99.47547028188336        3.33358418012488        0.66506669719531
C          100.73984604346408        2.71286559883356        0.47382731288397
N          100.49044330440235        1.42100591513958        0.09476749739062
C          101.99882947172041        3.29405672497055        0.65774674944975
C          103.22755678652493        2.65679176015532        0.49243979473671
C          104.50722824070557        3.32058294745992        0.66669694113887
C          105.45647023654122        2.39533852804770        0.41809965052900
N          103.42109202367769        1.35659820248881        0.13471670426937
C          104.75505904053051        1.16998544332340        0.08738518080444
C          105.42207673082932       -0.02945702350609       -0.23734467871402
C          104.79452464266397       -1.24142335583343       -0.58775482651328
C          105.43518880999736       -2.46103824452150       -0.92785989610254
C          104.46303403323229       -3.38109696285107       -1.21267207585555
C          103.20081228104061       -2.74798433325630       -1.05305320124272
C          101.94179002274586       -3.32378954925526       -1.25111214432716
C          101.93563829779741       -4.77440611957020       -1.61661228356258
C          101.85594106321825       -5.68683380587995       -0.54571467154617
O          101.77678089573780       -5.12121355066844        0.68921472446391
C          101.65118277044607       -5.93195846132499        1.83998221919860
C          101.86939416094941       -7.05933512410132       -0.76374989825858
C          101.96993827530568       -7.53566272222370       -2.06572485369977
C          102.04589759711996       -6.66131759805281       -3.12992267697371
C          102.02532745911201       -5.27610576092511       -2.91741807661441
O          102.12344123824296       -4.54256116172489       -4.05639720837263
C          101.81807569437191       -3.16266601020157       -4.13306330152671
C          100.71299593287564       -2.69405103307499       -1.06241171273519
C           99.43599323464080       -3.35921792243770       -1.24628554174089
C           98.48452287927586       -2.43769145537101       -0.98720544715983
C           99.18326187599669       -1.21323915451609       -0.64969276231439
N          100.51741439583094       -1.39389933045142       -0.70655754765158
N          103.45199464510840       -1.45537492672608       -0.67564710794356
C          102.00724734363806        4.72667105509967        1.07178566651195
C          101.60499398466575        5.72656910272207        0.17656456040544
O          101.22110381288357        5.30063947233440       -1.05625250184703
C          100.81862997383143        6.23170480886603       -2.04108675203213
C          101.62143250955238        7.06629397090102        0.56298748766603
C          102.03273093201938        7.39937441293565        1.84466465891153
C          102.42791018583578        6.42639542168822        2.75007411604062
C          102.41675113245196        5.08684509378369        2.36281530628214
O          102.77344186537817        4.06147977458983        3.17928619016048
C          103.22959338642926        4.31621986885150        4.49278918361792
H           97.43639780720116        2.54439909640753        0.44059932431638
H           99.33263021628927        4.35692058255849        0.97140041402430
H          101.20532847394900        0.72846039492646       -0.10120980427363
H          104.63654903349673        4.35551464140512        0.93911423404230
H          106.52900217605531        2.50452225753530        0.44465378907103
H          106.50323895552273       -2.60626814681884       -0.94952786792480
H          104.60060412380649       -4.40894246482236       -1.50683016636881
H          101.58397497880803       -5.24745424936001        2.68766839566771
H          102.52443937581187       -6.58247429565633        1.97118277935193
H          100.74378612709805       -6.54662455357231        1.80053890464289
H          101.80828535759838       -7.75622743296880        0.06114077952612
H          101.98498327864719       -8.60502588977245       -2.24345190317634
H          102.12129457454952       -7.02130539504194       -4.14817839576236
H          101.82236189254819       -2.91356904523328       -5.19693623183989
H          100.82812328497199       -2.94723812721223       -3.71707374872290
H          102.56967193214503       -2.55200716741202       -3.62119328970667
H           99.31309974980792       -4.39258788322802       -1.52850858886226
H           97.41228982953889       -2.54955366525480       -1.01332973561633
H          102.73925243918889       -0.76211100385105       -0.47413320072578
H          101.62642122564203        6.93206489958920       -2.28501093271604
H           99.93334557405846        6.79546571765417       -1.72288137069720
H          100.57081686588667        5.64670356801691       -2.92869602777080
H          101.31777163441286        7.84648916522680       -0.12198412602004
H          102.04382166102991        8.44123306374604        2.14532953660321
H          102.73930125373624        6.71477571241362        3.74505425591978
H          104.13132209100695        4.94027800723994        4.49024700968472
H          103.46823785936526        3.34274953185595        4.92501925519624
H          102.45518427008402        4.79998697294675        5.10029214002146
C          117.16409684913614       -0.03673139467004       -0.20990370522862
C          117.79757401599902        1.17781288414297        0.11912302367050
C          117.15888996652707        2.39666199355274        0.46634140390882
C          118.13268112224472        3.32646548039513        0.70805904298833
C          119.39462466175792        2.70183463991203        0.51369716871757
N          119.14071074191224        1.40331071327757        0.16177763907846
C          120.65527410494026        3.28659617014478        0.67386565558819
C          121.88240279521959        2.64420458880533        0.51859582955481
C          123.16397219246923        3.30714313324834        0.68158546368317
C          124.11047151027817        2.37658872625831        0.44255727742851
N          122.07213414530990        1.33877170291358        0.17791196005242
C          123.40546840841998        1.14960320691331        0.12563184062818
C          124.06883579493129       -0.05027008892378       -0.20506512850697
C          123.43758536046032       -1.26003073218885       -0.55628164835879
C          124.07465698314718       -2.47469127929820       -0.92014525103995
C          123.09956976772371       -3.38951251807634       -1.21173265899112
C          121.83912200679421       -2.75897633907293       -1.02971232445938
C          120.57834955629072       -3.33041004547650       -1.22913087822334
C          120.56840652139327       -4.76982248024702       -1.63700942843948
C          120.57198503451222       -5.71490156799007       -0.59162141822523
O          120.57493695370717       -5.18706515429537        0.66262045577780
C          120.54239355438355       -6.03407476130119        1.79353729630113
C          120.57782379573588       -7.08011019303989       -0.85114026751398
C          120.58574262139994       -7.51654394185981       -2.17089172034208
C          120.58243288993907       -6.61016612939640       -3.21033766441533
C          120.57117897133291       -5.23157373111375       -2.95571786521774
O          120.58663843151585       -4.46934646288750       -4.07920477006537
C          120.36959873650663       -3.07120777197181       -4.09543550011680
C          119.35145930340154       -2.70632679147118       -1.01134217299353
C          118.07281855636813       -3.37250854063031       -1.17954700637190
C          117.12414772331810       -2.45629968399403       -0.89270107204804
C          117.82597084003757       -1.23312935220447       -0.55708956984191
N          119.15936011044303       -1.41080465349203       -0.63668087362885
N          122.09420670812176       -1.47305312166403       -0.63269785741032
C          120.66523660812611        4.73337437399487        1.03580676438533
C          120.26603177573458        5.69524030399268        0.09825584856464
O          119.88509066871038        5.21739557216095       -1.11623798422059
C          119.48937704029005        6.10547119181854       -2.14257399511856
C          120.28271735241742        7.04997193110589        0.42765754250262
C          120.69163779341233        7.43610853452277        1.69516450408547
C          121.08431678587742        6.50168264546598        2.64132058591591
C          121.07296072677381        5.14681640001756        2.31096448565300
O          121.42871095626617        4.15670275043984        3.17035595996357
C          121.87963633292499        4.46751217569375        4.47362060288396
H          116.09098570618272        2.53382004869095        0.52258244276079
H          117.99386755493354        4.35516376128424        0.99802310511740
H          119.85302405175955        0.70828129379005       -0.03470425177668
H          123.29640848989047        4.34462742331461        0.94244238452403
H          125.18330805952343        2.48353971676765        0.46573432275695
H          125.14242352870389       -2.61970269758866       -0.95407836146892
H          123.23382114350819       -4.41234152615638       -1.52439620202431
H          120.53026447279251       -5.37683407449984        2.66502011031913
H          121.42972696117519       -6.67709479895166        1.84013061670777
H          119.64111295106161       -6.65888738777735        1.80110364819369
H          120.57983356002224       -7.80183002943049       -0.04560608734447
H          120.59291062121530       -8.57991716748565       -2.38188898928826
H          120.58792538855127       -6.93874511476140       -4.24192007136234
H          120.35096747970803       -2.78445686755129       -5.14961320638292
H          119.41153788218948       -2.80797793912207       -3.63461705918654
H          121.17777537137889       -2.52903118579940       -3.59286555218457
H          117.94730459506732       -4.40341377195261       -1.46946270679899
H          116.05188746871420       -2.57062561759743       -0.90020621288183
H          121.38364017691136       -0.78150889489520       -0.41809567176494
H          120.29961503566545        6.79342387994771       -2.41232031804223
H          118.60330707631705        6.68367705184661       -1.85392367523952
H          119.24538627523513        5.48277062697842       -3.00526275182105
H          119.98133243567973        7.80077135637403       -0.29036900021952
H          120.70311175482517        8.48965953952424        1.95186265727014
H          121.39433887648914        6.83170818045410        3.62370386932273
H          122.78122301985070        5.09128411449796        4.44799164865429
H          122.11676174672985        3.51361385419453        4.94820053197411
H          121.10271133440138        4.97664537038770        5.05670039479229
C          135.80997584524368        0.00410914556490       -0.34865943508984
C          136.43994020169393        1.21199186089063        0.00950507303633
C          135.79674368083042        2.42198649229189        0.37958586131299
C          136.76685319316695        3.33763728052319        0.68161886509915
C          138.03146339790101        2.71485413303823        0.49785159222802
N          137.78229073425393        1.43182125222712        0.08937460732926
C          139.29020469319505        3.28418635015516        0.71513913956643
C          140.51795871327025        2.64579565535171        0.54439721524198
C          141.79844232756415        3.30171791276130        0.74259312307745
C          142.74664547790681        2.38082909611266        0.47535188751777
N          140.70968269384707        1.35451993660649        0.15709298946014
C          142.04385439156445        1.16517432011613        0.11284781490282
C          142.70868058059264       -0.02935066356479       -0.23017144592301
C          142.08107046222082       -1.23672218156111       -0.59359396134501
C          142.72141046527119       -2.45540332783827       -0.93824483316323
C          141.74869446132053       -3.37608080259477       -1.21870278843175
C          140.48667922166615       -2.74414723365398       -1.05247614576734
C          139.22777806264463       -3.32129843297292       -1.24824821141533
C          139.21942633541491       -4.78162633252388       -1.57294379206077
C          139.32445518671096       -5.65531355317256       -0.47115595303291
O          139.42957761514484       -5.04404918261241        0.74026968795028
C          139.50867084330531       -5.81140892338054        1.92435983937883
C          139.31700649050461       -7.03461681946233       -0.63725872152772
C          139.20736468064234       -7.55894546155746       -1.92011912623701
C          139.10994205975956       -6.72452715400583       -3.01356498953555
C          139.11531016160831       -5.33132987864698       -2.85304889335593
O          139.02855290912558       -4.65008043362784       -4.02354768277171
C          138.98928624571386       -3.23968260599218       -4.12514727343705
C          137.99978264750962       -2.68527157820375       -1.07524498836811
C          136.72105143896297       -3.35013366648378       -1.24933508230432
C          135.77190161135147       -2.42178729741806       -1.00681845390797
C          136.47341711306083       -1.19518347250040       -0.68292967489504
N          137.80707231645286       -1.37988413962812       -0.73636229097760
N          140.73827766134630       -1.45094430720713       -0.67905516542703
C          139.30320998080867        4.70018569560945        1.18250827306361
C          138.92008199567542        5.73943055033573        0.32485899911029
O          138.54664168698395        5.36842846101649       -0.92877636747339
C          138.17043615394283        6.34426608676089       -1.88016448150390
C          138.94411936036778        7.06195788110880        0.76656279077666
C          139.34383105660325        7.33842257830350        2.06523215736895
C          139.72023435145221        6.32554106498936        2.93419174437590
C          139.70162389326427        5.00340755949730        2.49176572126578
O          140.04044582709898        3.94187589367966        3.26867871477125
C          140.49018107232678        4.13759962938060        4.59444833058190
H          134.72820011456133        2.56177231881555        0.41254277160388
H          136.62383430657127        4.35597093156119        1.00405882875848
H          138.49735901079441        0.73921812517981       -0.10570200017660
H          141.92875391783323        4.32958427916059        1.04016346424605
H          143.81927953781945        2.48671968351338        0.50948732636979
H          143.78951168181473       -2.59955656922922       -0.96484017309047
H          141.88535099140870       -4.40338528960115       -1.51533125822793
H          139.56809713085573       -5.09555244646486        2.74639705836058
H          140.40377617851948       -6.44519535775483        1.93396178701900
H          138.61876798487756       -6.43855760462863        2.05664697092561
H          139.39502700705341       -7.69998820679443        0.21184716660977
H          139.20056330312266       -8.63412376159243       -2.05897320205416
H          139.02811494352403       -7.12198316556971       -4.01731262257714
H          138.97280645424524       -3.01828279428441       -5.19497414858520
H          138.08711289234125       -2.82813565568203       -3.65992492272841
H          139.87492282104131       -2.77608775809950       -3.67766239216139
H          136.59541979937495       -4.38771263326962       -1.51418858997435
H          134.69944327740177       -2.53135559394863       -1.03256252177597
H          140.02565078538214       -0.75905895476239       -0.47245566824481
H          138.99007418357579        7.04414022559886       -2.08238327770017
H          137.28692231909565        6.90525256317665       -1.55226779441045
H          137.92979610896805        5.79962698193869       -2.79499563067040
H          138.65529663532294        7.87253208330623        0.11110424898763
H          139.36079582841464        8.36693511367150        2.40852968704344
H          140.02301454416181        6.56972137424953        3.94355885652445
H          141.39716947485792        4.75329166660710        4.62348753236307
H          140.71780740819625        3.14482918492661        4.98696451143912
H          139.71599117984962        4.60221689867156        5.21699365302634
