376
 energy: -658.714413979973 gnorm: 0.000334985398 xtb: 6.5.1 (b24c23e)
C           43.57711241524952        0.05776702847578        0.02493529789610
C           44.18551139090665        1.28511800647713        0.25361784288603
C           43.53406284004591        2.53431638645395        0.45497976989308
C           44.49635543255057        3.48420778142374        0.65146147328014
C           45.76685010709479        2.84358284692994        0.58668888841164
N           45.52866234201960        1.52242736341289        0.33576757084959
C           47.03009129670856        3.42986151883662        0.72581673290881
C           47.05751074835273        4.88342593814251        1.01465212347655
C           47.66516671363188        5.78389047937450        0.14030248354299
C           47.65822254580420        7.13497463176390        0.44881029385879
N           47.09858165397233        7.62362939835854        1.55099555604296
C           46.52045040191995        6.77197229317766        2.39169713455457
C           46.47184869077766        5.40502706376235        2.16776022308809
C           48.24721971734995        2.75389704401637        0.61436237620497
C           49.54205467891896        3.37693877194309        0.82355278820390
C           50.46558918994785        2.41256811537205        0.63191429318433
N           48.40590639513704        1.43347536425211        0.32152242237436
C           49.73375562925516        1.20125383348725        0.31501457097778
C           50.37470078411268       -0.02420175616300        0.03855438660810
C           49.73950205625113       -1.24953402347390       -0.24097351171937
C           50.38403447872275       -2.47750532453211       -0.54636673839747
C           49.41711361053269       -3.42364356706536       -0.74493806521718
C           48.15088374432156       -2.80293118299522       -0.55749872168233
N           48.39789449801315       -1.48786714085323       -0.26318154571042
C           46.88885738901168       -3.39479408878818       -0.67375369086608
C           46.85715358841675       -4.84372893482448       -0.98148723410620
C           47.43076554201339       -5.78162372126492       -0.12344968595966
C           47.37175145324638       -7.12614292709545       -0.45474849708646
N           46.79459787948760       -7.57413619635936       -1.56499116874123
C           46.24740267303603       -6.68681397775052       -2.38964846006323
C           46.25110603652261       -5.32322661054821       -2.14249387671272
C           45.67030462180296       -2.72427789353071       -0.52268242543818
C           44.36768812734963       -3.36866719817611       -0.59234232844621
C           43.45125723237142       -2.39955396060598       -0.39703818558078
C           44.19271058685766       -1.16656645542860       -0.19835523271322
N           45.52597837788976       -1.40194530985486       -0.27129820080474
H           42.49181673459932        0.06607814968310        0.02193397472151
H           42.46509325578165        2.67536358473512        0.44230676611164
H           44.34552853765461        4.53834423334229        0.81846203374693
H           46.25321198710583        0.82130466594450        0.22330663967326
H           48.12230386599236        5.43228787917106       -0.77689647766103
H           48.12093995912658        7.85567122626548       -0.21904838817931
H           46.07527419283267        7.20065132764772        3.28483449550654
H           46.00058414803791        4.74758210121658        2.88874534768339
H           49.70030899511841        4.40819944676429        1.09423434240468
H           51.53914654434337        2.48569569782626        0.70008423410018
H           51.45216398292072       -2.60882681765169       -0.60972155717697
H           49.56446851226585       -4.45837328273362       -1.00785241466670
H           47.67611457409986       -0.79481361336501       -0.09480954413730
H           47.89987076875047       -5.46447097158436        0.80037603550804
H           47.80671651656037       -7.87515514873155        0.20053771003001
H           45.78557707101090       -7.08307001605845       -3.28925291082469
H           45.80369507586191       -4.63571045059173       -2.85033354485349
H           44.20250955848108       -4.42150221058428       -0.75505691860643
H           42.37580921457705       -2.48088349386430       -0.37592013639943
C          156.26676508466613       -0.05763132851036       -0.00569584742372
C          155.65594425813862       -1.25347693701504       -0.36022212693566
C          156.30487075831167       -2.45897525734659       -0.74893573246046
C          155.34064697940624       -3.39258557703111       -1.00498785851450
C          154.07145019816787       -2.79013939831820       -0.77060375425453
N          154.31230409968546       -1.49960528034223       -0.39422716496914
C          152.80701453322663       -3.37357242224761       -0.91074682531816
C          152.77633614571425       -4.79976733550711       -1.31323722738041
C          152.16534680567648       -5.20382622284936       -2.49984236803299
C          152.16927528436003       -6.54762396759684       -2.83869879497507
N          152.72898403947514       -7.48453517893132       -2.07993482489711
C          153.31018925647155       -7.10864189731884       -0.94536986772634
C          153.36199180383576       -5.78920454210217       -0.52410804406227
C          151.59134002509501       -2.71859262065115       -0.70125151010107
C          150.29539321226031       -3.36705518446679       -0.79356156399480
C          149.37377526674388       -2.41888211821767       -0.52664006878629
N          151.43526280239658       -1.40821148444918       -0.36513251954095
C          150.10790657161988       -1.19608418816794       -0.26378578931325
C          149.46929191253406        0.02404709049981        0.04035394429677
C          150.10697266738293        1.24285601852071        0.34188798468179
C          149.46512661207544        2.47817393674036        0.62220743881166
C          150.43398616709680        3.40927254540545        0.87511996519982
C          151.69872704099942        2.76727533347766        0.76547543295004
N          151.44897796163653        1.46192983669246        0.43276745064448
C          152.96191053465677        3.34394771536803        0.93407892752945
C          152.99649586747066        4.77446615936463        1.31808260951606
C          152.41950091525678        5.22180678952591        2.50632758309045
C          152.48167590827077        6.56978171917479        2.82262466951543
N          153.06503768107086        7.47154609133479        2.03970632994928
C          153.61541635054530        7.05420628136434        0.90404291146478
C          153.60892362442507        5.72730274845388        0.50433338051915
C          154.17907388715054        2.67447209569086        0.76783517563998
C          155.48279543069739        3.27662647707368        1.00158877164844
C          156.39728988804728        2.32232752951923        0.73666433626676
C          155.65352859651907        1.13572741681736        0.35160381852335
N          154.32080728214243        1.38193044047855        0.39119995371755
H          157.35204806045022       -0.06603381931986       -0.01149054255255
H          157.37356403140549       -2.58089326453167       -0.82496748282235
H          155.48934481558524       -4.40776929151648       -1.33534022024198
H          153.58917739209164       -0.82257424609752       -0.17534666918247
H          151.70796450408659       -4.47319686862138       -3.15622674093492
H          151.70398086527018       -6.88554824201863       -3.76003323775755
H          153.75527757517324       -7.89698880706243       -0.34533335875585
H          153.83569440382041       -5.53178740450511        0.41582946845757
H          150.13521051441990       -4.40909938461837       -1.01783404691547
H          148.30014674366890       -2.51341866525924       -0.49664976528521
H          148.39739147545916        2.62686141170238        0.62228030258966
H          150.28893268480019        4.45157921728967        1.10763822632013
H          152.16923479067918        0.76549216595865        0.27201634290299
H          151.94536716637234        4.52094546680210        3.18315402648418
H          152.04419884339600        6.94052337630866        3.74500148142752
H          154.08230530972244        7.81453125492275        0.28476101307750
H          154.05914283216967        5.43521711195400       -0.43687757578960
H          155.64997676280919        4.28784681264761        1.33580692501167
H          157.47278278656179        2.38236978577013        0.79462499908034
C           51.77984494190839       -0.03748519187263        0.03680092927132
C           53.00515065043217       -0.04949643280203        0.03223222882792
C           54.34674325021282       -0.05795144029389        0.02762357474340
C           55.57887475540107       -0.06420856659131        0.02229899069314
C           56.91415633824250       -0.06694821037888        0.01567391514379
C           58.14803557166147       -0.06772328737094        0.00958383916977
C           59.48324487922273       -0.06762642310945        0.00288801447745
C           60.71553057605785       -0.06533746372564       -0.00350241428307
C           62.05684303348465       -0.06187180614836       -0.00971987995048
C           63.28243831350833       -0.05628112910891       -0.01860646913435
C           72.97076950725464       -0.01163777579334       -0.01000241958952
C           74.19659677658004       -0.00517588430748       -0.00401541230223
C           75.53790503662792       -0.00174508259497        0.00184588058888
C           76.77045959404612        0.00152946966414        0.00599211697793
C           78.10562634758885        0.00344173243895        0.00963404557168
C           79.33985177877673        0.00570074270910        0.01205856522022
C           80.67502746349764        0.00625890162087        0.01307492833579
C           81.90760425091396        0.00490710519191        0.01336318432853
C           83.24893359438728        0.00443454406829        0.01186610722237
C           84.47479317153299        0.00451506925208        0.00786229860012
C           94.16964875053823       -0.00042421500413        0.00907573743763
C           95.39555646370646        0.00214336005420        0.01123468124314
C           96.73697401940238        0.00195261500826        0.01495677944432
C           97.96958615374203        0.00276732872554        0.01637945109418
C           99.30484542584730        0.00278662027581        0.01741510488691
C          100.53912074860654        0.00312102948850        0.01789514229230
C          101.87438054998070        0.00314451038606        0.01726591145413
C          103.10699472958942        0.00320310616665        0.01620361006533
C          104.44841487907566        0.00180763151394        0.01331797845875
C          105.67432060121833        0.00324825549258        0.00964799533661
C          115.36925620961136       -0.00417629638739        0.00342344209645
C          116.59512235651817       -0.00247054706402        0.00607732601866
C          117.93645856342042       -0.00237668984114        0.00862290992677
C          119.16903569504242       -0.00019818015505        0.00768901966768
C          120.50421323095077        0.00075629395243        0.00760414982650
C          121.73844408176865        0.00280175988012        0.00576975536415
C          123.07361402612770        0.00466351247639        0.00344530878466
C          124.30617692938590        0.00667124839703       -0.00008086180100
C          125.64749194002137        0.00920128329708       -0.00495789858053
C          126.87332893072958        0.01388724701696       -0.01079128160675
C          136.56163527332467        0.05496926888675       -0.00507239948402
C          137.78723578084643        0.06299842476080        0.00383600923980
C          139.12850763607335        0.06738072360036        0.01267821429517
C          140.36079774683239        0.06962831349505        0.02058077758767
C          141.69597865097819        0.07101927083741        0.02893197442157
C          142.92988288937056        0.07038365145189        0.03522312042575
C          144.26516249102795        0.06724809272015        0.04099145715200
C          145.49732745520603        0.06178886241745        0.04362837896752
C          146.83889911258859        0.05252861069290        0.04509122289937
C          148.06421008022377        0.03899048601874        0.04434005518180
C           64.68645090054140       -0.05218194395084       -0.02333455718548
C           65.31997261004520       -1.28139204061233        0.24525050188526
C           64.67931726471477       -2.51155035083211        0.54310905199436
C           65.65040505318136       -3.45818566118011        0.72417394927444
C           66.91296882951411       -2.83334196450467        0.53325879293310
N           66.66245666208157       -1.51629226849940        0.25550203052975
C           68.17590913941847       -3.43081197384505        0.62795076961203
C           68.19231421760463       -4.88662114302014        0.91128997330522
C           68.77546663272670       -5.39122781865427        2.07292454727190
C           68.76074948993674       -6.75886474920524        2.29706892220980
N           68.21674950476071       -7.62602581409623        1.44933030061075
C           67.66195009232436       -7.15368194611304        0.33788340084252
C           67.62215883518471       -5.80315700284025        0.02857802172883
C           69.40078598106756       -2.77867178438682        0.47996569738746
C           70.68624029241525       -3.45246495615721        0.53216483193696
C           71.62474319113177       -2.50014742151049        0.35332738685785
N           69.57955639620909       -1.44778014200934        0.25324305602472
C           70.91127312488740       -1.24982509169772        0.18328603841100
C           71.56679743461444       -0.01739864136077       -0.01671330886069
C           70.93285921330377        1.22313029003995       -0.22676221050918
C           71.57299323245262        2.47638446266017       -0.40645410064588
C           70.60179356620884        3.42139422239268       -0.59505110959570
C           69.33951921866259        2.76937585101299       -0.54411770248130
N           69.59051285169726        1.44376346369810       -0.30978830521857
C           68.07685640793696        3.35801709488591       -0.68411971206450
C           68.05879158178305        4.81441563596621       -0.96432079727303
C           67.46938609140351        5.71445201018060       -0.07734665055168
C           67.47998185262966        7.06678510672439       -0.38054351265142
N           68.02575072384640        7.55626301884090       -1.48920322108858
C           68.58679635814826        6.70486801057339       -2.34157220868889
C           68.63108340082891        5.33674840587976       -2.12356157569481
C           66.85186309653430        2.69666995497858       -0.58344122171826
C           65.56667436595153        3.34022427185162       -0.79147176929797
C           64.62824466304144        2.38916203887043       -0.60562967457174
C           65.34160756635792        1.16639792596422       -0.29431911147353
N           66.67335724792608        1.37733845087303       -0.29820632684301
H           63.61193708063990       -2.64527650882365        0.61308498880458
H           65.50669153346276       -4.49595790481677        0.97672298523800
H           67.37761752350671       -0.81668101021320        0.08722112323395
H           69.22021298262354       -4.72024515849412        2.79804802600177
H           69.20423964373154       -7.17515972457316        3.19679720450429
H           67.22896039710392       -7.88684056705646       -0.33632495799773
H           67.16913266615595       -5.46490202638146       -0.89577673460347
H           70.82865062920763       -4.51152454029614        0.67307776257658
H           72.69725266178465       -2.60764146274311        0.32709863246396
H           72.64016835870774        2.62753540441136       -0.38735749231938
H           70.74496946664904        4.47864519496761       -0.74719934452009
H           68.87555960079111        0.73120234551622       -0.20809918549318
H           67.02249299907942        5.36138867351623        0.84431393496336
H           67.03121267425368        7.78746890264000        0.29674204781941
H           69.02094615804319        7.13452300991314       -3.23960342619584
H           69.08874600271037        4.67921656755231       -2.85312851456997
H           65.42420180756307        4.37518662449479       -1.05656987063897
H           63.55590892474806        2.47807379917640       -0.67429129647365
C           85.87875826142361        0.00199426667295        0.00414582948121
C           86.50717740934063       -1.22910740483829        0.27701013336560
C           85.86194319708542       -2.45594125015204        0.57855916933428
C           86.82943849629109       -3.40618933396272        0.75999582486559
C           88.09437406130503       -2.78702999480267        0.56593251556649
N           87.84874151186082       -1.46940313755941        0.28610073965504
C           89.35448576106657       -3.39054503614821        0.65948587113426
C           89.36367802241861       -4.84640993185420        0.94366191356516
C           89.94270160817209       -5.35333618630799        2.10631368806556
C           89.92220872900127       -6.72095037911220        2.33025080346487
N           89.37651805497306       -7.58585404712700        1.48131154599290
C           88.82549734914676       -7.11124680119210        0.36896490936988
C           88.79140462399664       -5.76051165376191        0.05984348362558
C           90.58317184775053       -2.74600439375263        0.50913483465296
C           91.86449641627021       -3.42769792879059        0.56185187841683
C           92.80886617339996       -2.48165152270245        0.38050857748815
N           90.77013477521362       -1.41678810114758        0.27967694025875
C           92.10312952709000       -1.22735361651350        0.20826366548701
C           92.76560785722216        0.00068411256283        0.00451088740359
C           92.13709138157721        1.24361898909106       -0.20803317164880
C           92.78223642158402        2.49359457444304       -0.39184375938584
C           91.81471680680552        3.44198871347832       -0.58256698949229
C           90.54977819008298        2.79534283228309       -0.52883012191046
N           90.79550995190219        1.46952917645906       -0.29053874863399
C           89.28968786646232        3.38943468784424       -0.67048522586572
C           89.27980240703724        4.84481272837194       -0.95687453136497
C           88.69740992907722        5.75234816191414       -0.07296305763070
C           88.71625681180277        7.10328723934901       -0.38200090421131
N           89.26361056415055        7.58450076191332       -1.49347959725611
C           89.81800604168126        6.72590839114323       -2.34297627695714
C           89.85380367430304        5.35848734244035       -2.11914556921735
C           88.06097041053086        2.73565761935081       -0.56684889936257
C           86.77964310970802        3.38638456924176       -0.77677883762220
C           85.83532503907146        2.44191531862130       -0.58712396252867
C           86.54111987222247        1.21587213247263       -0.27160985532635
N           87.87411730431390        1.41843437008174       -0.27658662583675
H           84.79413040586591       -2.58514924354377        0.65037770094819
H           86.68190916393449       -4.44291946496565        1.01463261303436
H           88.56612633120261       -0.77283394990439        0.11470870413216
H           90.38897823288634       -4.68417821570275        2.83218083134206
H           90.36246079193988       -7.13910626189147        3.23070193256286
H           88.39103682291683       -7.84264269548616       -0.30620376543620
H           88.34125262173247       -5.42027441829605       -0.86518653794108
H           92.00044249751370       -4.48730054917139        0.70502044674123
H           93.88068529695981       -2.59579234075403        0.35388601324028
H           93.85003114289816        2.64044981045362       -0.37395501375657
H           91.96222186253816        4.49817089115350       -0.73792628792162
H           90.07812859045740        0.75978538175055       -0.18633480090486
H           88.24963172368508        5.40610538993110        0.85085073733914
H           88.27312487588773        7.82973924505724        0.29282556033803
H           90.25375335002354        7.14892473118587       -3.24337942363016
H           90.30640914466443        4.69490375417914       -2.84638680688937
H           86.64353443794025        4.42125649117022       -1.04555110314537
H           84.76353034003536        2.53729137937036       -0.65562151601177
C          107.07835796056852        0.00033872429225        0.00543185903005
C          107.70678144061739       -1.23104943444489        0.27721074140211
C          107.06157977412560       -2.45775265484293        0.57944185809549
C          108.02902149821678       -3.40814296893398        0.76036871121944
C          109.29395981995826       -2.78937487504571        0.56500160706715
N          109.04831629695900       -1.47168454851269        0.28517243527228
C          110.55399251126100       -3.39326632894164        0.65709077267032
C          110.56381949053358       -4.84893653628572        0.94194745612458
C          111.14757872401472       -5.35516358825418        2.10258363893269
C          111.12854692196390       -6.72266106089409        2.32724732012164
N          110.57973803907220       -7.58816753518784        1.48092768590957
C          110.02406562914679       -7.11426056523186        0.37060356246377
C          109.98836497329063       -5.76369655464947        0.06088095177453
C          111.78272830005781       -2.74909854982080        0.50483264887938
C          113.06389782749042       -3.43133274627610        0.55462464825025
C          114.00830948392608       -2.48544629656500        0.37265662565171
N          111.96974130123320       -1.41982362991276        0.27615652014845
C          113.30272271459093       -1.23077270423729        0.20291101307279
C          113.96528742785563       -0.00275303435710       -0.00019139137915
C          113.33704114267090        1.24055486341812       -0.21105973535802
C          113.98242550671000        2.49039417973660       -0.39480387448856
C          113.01498585466240        3.43924343347840       -0.58371467017081
C          111.74992619034643        2.79295906093112       -0.52874548171326
N          111.99545130631057        1.46692991242782       -0.29178783361398
C          110.48982313902550        3.38759674104145       -0.66802772517753
C          110.48068084660754        4.84337061083244       -0.95272986842709
C          109.90318729635084        5.75072852452123       -0.06548492409610
C          109.92373549405367        7.10208468849953       -0.37264519365284
N          110.46803479490444        7.58377498705587       -1.48541160822653
C          111.01753060320607        6.72528909236001       -2.33819877788565
C          111.05147784745998        5.35749803480303       -2.11637107270754
C          109.26106593358284        2.73420592423775       -0.56347135240142
C          107.97975534247007        3.38588871268077       -0.77043218206941
C          107.03528878127779        2.44141192757715       -0.58156921387335
C          107.74094245592791        1.21444526950500       -0.26914776600305
N          109.07398287213864        1.41650177650419       -0.27525048706088
H          105.99380913296913       -2.58675004051557        0.65222264459084
H          107.88144945608990       -4.44473987238780        1.01552023664103
H          109.76572730314803       -0.77528174656863        0.11319347203702
H          111.59654717862699       -4.68551768173936        2.82634066687958
H          111.57272994555919       -7.14022553300989        3.22604128181175
H          109.58715099084969       -7.84613087887803       -0.30246039232148
H          109.53470194252007       -5.42416079965542       -0.86268781007272
H          113.19983332586398       -4.49114757464448        0.69617978241167
H          115.08003629470387       -2.59996147636207        0.34400379092724
H          115.05029916996601        2.63683880724737       -0.37816959924116
H          113.16263565419516        4.49546165926341       -0.73869159146114
H          111.27797974480720        0.75733792850507       -0.18719275078514
H          109.45805147859753        5.40403122845034        0.85943408165848
H          109.48471030862255        7.82849568767893        0.30490451728234
H          111.45084681592843        7.14871719929950       -3.23958377450294
H          111.50037846464220        4.69402784754762       -2.84601016254320
H          107.84389777946403        4.42144512755184       -1.03670997147963
H          105.96344582215735        2.53737355003053       -0.64848467474395
C          128.27730944238667        0.01717663750605       -0.01581415503277
C          128.91085792869512       -1.21182958276796        0.25458015465963
C          128.27030229897167       -2.44135471145308        0.55566612780241
C          129.24122295742805       -3.38850724186699        0.73473581512494
C          130.50374637714486       -2.76489324098783        0.53930596425695
N          130.25317236615246       -1.44764082237951        0.26141332624962
C          131.76625990701893       -3.36360279055262        0.62905650508015
C          131.78410949996984       -4.81938295199387        0.91221576285786
C          132.37502334403231       -5.32357962605305        2.07017128371941
C          132.36409729252293       -6.69131523158708        2.29375134484008
N          131.81659861202027       -7.55900121708687        1.44879387936768
C          131.25416676237319       -7.08706002907345        0.34103849999525
C          131.21010307201058       -5.73643921824682        0.03260195926732
C          132.99141396243223       -2.71248311521245        0.47664605573578
C          134.27642777317655       -3.38761198333876        0.52212393911276
C          135.21517637722380       -2.43541339009783        0.34377460581775
N          133.17031137501118       -1.38133311788077        0.25333614185903
C          134.50217738525379       -1.18404304133354        0.18062155161355
C          135.15768669279882        0.04897119276979       -0.01340754363766
C          134.52436490471058        1.29045944660546       -0.21850093979894
C          135.16499085827101        2.54396550064770       -0.39380719903319
C          134.19418066770601        3.48942836312678       -0.58244260386678
C          132.93188766021743        2.83723394778140       -0.53565454467655
N          133.18214794910278        1.51137083944859       -0.30339675774244
C          131.66930639039373        3.42597814101999       -0.67805819926568
C          131.65357453497359        4.88231589221879       -0.95862532272601
C          131.06397617838434        5.78378305694450       -0.07329836516568
C          131.07954242319602        7.13617968830387       -0.37608980543387
N          131.63025603619462        7.62441749416797       -1.48284134077566
C          132.19129726450686        6.77160538635025       -2.33382823465793
C          132.23084075207157        5.40333714994454       -2.11605257577629
C          130.44433730705052        2.76480200250056       -0.57906669791118
C          129.15947716863883        3.40848021543710       -0.78867858209912
C          128.22062239098136        2.45790583321086       -0.60250501491570
C          128.93334288335632        1.23510280266746       -0.28941772479248
N          130.26498028620097        1.44549937544358       -0.29284544391531
H          127.20304777527132       -2.57429356080686        0.62892862037471
H          129.09765366663129       -4.42597727498135        0.98864195437449
H          130.96836296658239       -0.74872325379872        0.09037507404581
H          132.82329503697531       -4.65219021673262        2.79274958515556
H          132.81400942288585       -7.10727839012446        3.19044019848468
H          130.81863895500524       -7.82068084650565       -0.33102003438721
H          130.75131180581286       -5.39860622712088       -0.88905330759433
H          134.41858058216559       -4.44729512415056        0.65846367725062
H          136.28751269614867       -2.54362172961158        0.31365662446346
H          136.23214405685326        2.69497898455466       -0.37226182373998
H          134.33784645736208        4.54698661852799       -0.73191447100480
H          132.46703131894245        0.79855355760728       -0.20477804009403
H          130.61359581682274        5.43183541208905        0.84708655580378
H          130.63109532150463        7.85802704558911        0.30016931706807
H          132.62970987852219        7.20025089740447       -3.23027513083229
H          132.68917310296047        4.74469192862289       -2.84420326458574
H          129.01770889921431        4.44329374194662       -1.05477812689801
H          127.14836289697554        2.54719293014492       -0.67187274212862
