446
 energy: -856.473939517649 gnorm: 0.000791143667 xtb: 6.5.1 (b24c23e)
C           94.49021528788582       -0.09387325345446        0.01075175804851
C           95.10372644342441       -1.30502410216157        0.30293397196043
C           94.45595626222014       -2.54397735983663        0.57008366103776
C           95.42061151659253       -3.47765396931393        0.82263325372442
C           96.68896563648239       -2.83555937761748        0.72988548970017
N           96.44742286242463       -1.53226317552478        0.40301746508709
C           97.95593470731849       -3.40359257540339        0.90963703701544
C           97.99744437099791       -4.83656673644655        1.28157298062258
C           98.65058741916258       -5.75781679025176        0.45647222336172
C           98.68950745238554       -7.09869825780782        0.79173121410149
C           98.07359755748304       -7.52301711547196        1.96576571038311
N           98.11105206536733       -8.93026457531600        2.32263566334525
O           98.68768983270135       -9.67932261758162        1.57651390085968
O           97.56166609892801       -9.26168715488655        3.34174644457579
C           97.42150265870140       -6.62224105406955        2.80293586188288
C           97.38406580053639       -5.28401304662209        2.45581528585585
C           99.16880539407177       -2.72478400620335        0.76192754107961
C          100.46817913219746       -3.31570015388356        1.02960150092794
C          101.38308525762631       -2.35925672678034        0.76989696421795
N           99.31536441363973       -1.42922934929854        0.37252192057736
C          100.64127967775762       -1.18464963022598        0.35305404945622
C          101.27190291807405        0.01482918275510       -0.03404428094003
C          100.63181274526082        1.21105216599018       -0.40922159463627
C          101.27175368667206        2.40921639368921       -0.82303423832450
C          100.30256991451085        3.34154961726358       -1.07003570905017
C           99.04002070046081        2.74198007081133       -0.80450790561111
N           99.29037976412860        1.45190542967224       -0.42040455574443
C           97.77433330156509        3.32635291651664       -0.93195046534521
C           97.73491801896920        4.75292216167635       -1.32453707445902
C           97.06773164514728        5.14741907931039       -2.48887786256781
C           97.02814144766916        6.47870355827772       -2.86050159781429
C           97.65852247379011        7.42663249280461       -2.05930895252928
N           97.61946440335056        8.82622722123958       -2.44403123756903
O           97.01332610957347        9.11285772300262       -3.44435046855815
O           98.19588549813479        9.61434374461674       -1.73897764028012
C           98.32653198890092        7.05590097022623       -0.89567022046031
C           98.36348521490739        5.72149232903748       -0.53507601811544
C           96.56020680973521        2.66394111923282       -0.71607991974242
C           95.25316456510643        3.29944226095545       -0.79228684415427
C           94.34573483290762        2.33796332663788       -0.53075355031206
C           95.09706137296509        1.11992809565236       -0.28163684562588
N           96.42788451929646        1.35727889780139       -0.38976063395038
H           93.40502542807448       -0.10693460845432        0.01442508949067
H           93.38778422966088       -2.69007496625494        0.56010150053519
H           95.27223952423030       -4.52187483922178        1.04473124712395
H           97.17077357778560       -0.83675260064426        0.25363082222200
H           99.11470532588463       -5.41673335872349       -0.46151536520959
H           99.18758143472503       -7.82028336207049        0.15542071976730
H           96.95486225046166       -6.97703837673341        3.71401038764409
H           96.89238081721648       -4.57133991730060        3.10769724384755
H          100.63574987224648       -4.31961920625367        1.38434166859290
H          102.45657621021030       -2.41538262488501        0.85239067483869
H          102.33830227897081        2.53129255297828       -0.92142226040901
H          100.44719348290552        4.35159392329282       -1.41692050739376
H           98.57031353623117        0.77676462848096       -0.18490033163722
H           96.59396709081415        4.39849455438157       -3.11261062768328
H           96.51876004639870        6.79244286118787       -3.76368792546178
H           98.80476742552989        7.81340169146364       -0.28645143569407
H           98.86638247631541        5.42334200542747        0.37753280984217
H           95.07872202817286        4.34229146801253       -1.00228455346581
H           93.27071087057695        2.41607151436875       -0.49305891018503
C          181.91101279532282        0.04681311611813       -0.07595769396948
C          181.29735286330541        1.23184062890577       -0.46033549411430
C          181.94509863431875        2.42441244938339       -0.88944404027140
C          180.98065975694735        3.35242453439415       -1.16270599123135
C          179.71245620023996        2.75927889410180       -0.89909637604174
N          179.95384900450571        1.47974189911665       -0.48903221635803
C          178.44600056850311        3.33670534285312       -1.05057163965764
C          178.40877022708312        4.75197086030775       -1.48613946380646
C          177.76798551279896        5.10829855354551       -2.67693657395054
C          177.73322965838622        6.42778366161407       -3.08933968438122
C          178.34102183409829        7.40154167240601       -2.30190170477709
N          178.30665948558567        8.78912036715045       -2.72928489205526
O          177.74078447281221        9.04051221674834       -3.76203864679011
O          178.84715844680002        9.60273758071382       -2.02476257917155
C          178.98202269185492        7.06861634850962       -1.11205058651338
C          179.01533919846676        5.74549142357451       -0.71123010681492
C          177.23210847213574        2.68316143253865       -0.82119938959455
C          175.93211678417367        3.32208002785246       -0.92676773701496
C          175.01702638378143        2.37630474211628       -0.63140555096615
N          177.08533893727900        1.38328185562423       -0.44624529811464
C          175.75927382442697        1.16610355345959       -0.33407602515362
C          175.12882478068050       -0.04361898191309        0.01948684462266
C          175.76804859129604       -1.24713708502009        0.37163813120063
C          175.12614703975530       -2.47086057157436        0.69899058986492
C          176.09507499340725       -3.39380201129525        0.97930971378380
C          177.35986329717377       -2.75710399626508        0.84108550229983
N          177.11033285766220       -1.46436444230862        0.46518764459479
C          178.62586856412182       -3.32897386753324        1.01274083518809
C          178.66496997162110       -4.74577918415985        1.43999070747019
C          179.29437994471371       -5.70573740546069        0.64078866170125
C          179.32996954505163       -7.03197472053332        1.03031279129166
C          178.73435154455856       -7.40291673326935        2.23259513602671
N          178.76723934461322       -8.79454883441246        2.64584004802403
O          179.33230960544725       -9.57689951317769        1.92539252621958
O          178.22679972008726       -9.08086115533732        3.68328967133674
C          178.10608227965520       -6.46305834719942        3.04479197229754
C          178.07227634528823       -5.14002854936365        2.64390239011516
C          179.84067522583447       -2.66444601903758        0.80792125368248
C          181.14920788621529       -3.25374467701547        1.04969208255028
C          182.05688677061767       -2.30601056629626        0.74283071656892
C          181.30454080995793       -1.13552585706012        0.32553105722190
N          179.97297328744199       -1.38510654218054        0.38720631790431
H          182.99611858855778        0.05576383013333       -0.09289449506248
H          183.01307938147028        2.54171509106822       -0.97938337949651
H          181.12878746920197        4.35667720429522       -1.52503389439326
H          179.23059055797245        0.81127357627798       -0.24545346192371
H          177.31017303413202        4.33914478017138       -3.28784746079580
H          177.24429800064408        6.71249912689606       -4.01322474501531
H          179.44317770309920        7.84585791040486       -0.51463996731251
H          179.49854641245966        5.47620800875251        0.22077725737106
H          175.76384147247506        4.35686116650303       -1.17706892091543
H          173.94310271382619        2.46608419691937       -0.60019271669089
H          174.05839021539245       -2.61878492869737        0.70879293816447
H          175.94853780636765       -4.42764849043308        1.24595057982296
H          177.83152128683983       -0.77667672119446        0.27347559715753
H          179.74102399625187       -5.40725120126825       -0.30039222272886
H          179.80927836093801       -7.78327140929185        0.41429444249463
H          177.65495385757509       -6.77627039720450        3.97863371160095
H          177.59961981426980       -4.39702903854644        3.27571335105741
H          181.32451799737080       -4.25117082565579        1.41914502563929
H          183.13291314280107       -2.36002094205975        0.79232371349838
C          103.89980957910312        0.03589620266216       -0.07247091187877
C          102.67782754288079        0.02984613029445       -0.05325106291547
C          105.24882383927761        0.03462549941694       -0.09006846048565
C          106.47094923072170        0.02403747906557       -0.10080297647346
C          117.35078418326397       -0.04755252834993       -0.08425047811001
C          116.12824577934988       -0.04153554572580       -0.08886329587952
C          118.69896421686073       -0.04802223789925       -0.08134541368603
C          119.92148621226667       -0.05140957780546       -0.07398263484249
C          130.80054171126244       -0.03092418644431       -0.02628090298833
C          129.57797839810451       -0.03345664174009       -0.02850527963651
C          132.14870723121786       -0.02842163263214       -0.02841271851364
C          133.37128587102811       -0.03278340919939       -0.03081219676905
C          144.25108139059219       -0.03333835022066       -0.04880865076481
C          143.02853490373806       -0.03846093558001       -0.05019361934882
C          145.59920755288923       -0.02782783058823       -0.05110696514019
C          146.82172579351783       -0.02787722535085       -0.05070210162473
C          157.70010363854871       -0.05151880648627       -0.04550187226403
C          156.47765472421369       -0.04396290588650       -0.05042999222369
C          159.04827247402235       -0.05722482824435       -0.04282451773355
C          160.27074990582634       -0.06786541233743       -0.04036865862133
C          171.15134874259911       -0.09937234372520        0.00877102882214
C          169.92938238350021       -0.10716823672341       -0.00611948590447
C          172.50061943230494       -0.08521664920652        0.01866735917021
C          173.72243680446027       -0.06438579828686        0.02279224744046
C          107.87613002961923        0.01151889714117       -0.10788166585217
C          108.50790298269912        1.02720378392360       -0.85092452825282
C          107.86339500787551        2.06683503724494       -1.56974197746776
C          108.83022977295479        2.81990784986101       -2.17800987841562
C          110.09350606240375        2.25430852912734       -1.85418900853542
N          109.84880501858817        1.18160369496261       -1.04055738283546
C          111.35662608069575        2.70431533808900       -2.26066035832280
C          111.37802136082691        3.86385620656970       -3.18313573393021
C          112.01434225990961        5.05170969904775       -2.80981810770765
C          112.03546165063844        6.13723133385862       -3.66640222347079
C          111.41896642130834        6.03286626950945       -4.90998457403834
N          111.43922186105576        7.16941295702928       -5.81450209510339
O          110.88398322291387        7.04635327974212       -6.87591214238005
O          112.00902106238090        8.16419031389648       -5.44648637247195
C          110.78261677071212        4.85875007820427       -5.30216589394597
C          110.76247549306443        3.78088434177763       -4.43593611002294
C          112.57849357346720        2.15192337020413       -1.87240816896571
C          113.86745532311978        2.60402324396072       -2.36590621907303
C          114.79788197019205        1.83813739458344       -1.76015280973173
N          112.74641194515067        1.11659897686660       -1.00454434890257
C          114.07556626701108        0.91448690350211       -0.90714448499658
C          114.72390608477438       -0.03630193096877       -0.09341518248554
C          114.09247738102376       -0.99245844072157        0.72539621135464
C          114.73776119551528       -1.92816378927055        1.57476580176055
C          113.77104713257093       -2.68473442542679        2.17849950725106
C          112.50691402498636       -2.23851654941705        1.70518374763812
N          112.75167830840965       -1.20685944823505        0.83943864489499
C          111.24372800257414       -2.73069425678297        2.05700956502307
C          111.22014058230741       -3.88208619630397        2.98946013636116
C          111.83653607008243       -5.08811681281358        2.64203428247103
C          111.81595546406498       -6.16412775838533        3.51069500564730
C          111.17801455086530       -6.03155607660119        4.74060789294798
N          111.15787603862633       -7.15713327920509        5.65890589538976
O          110.59097583061870       -7.00780066588030        6.71060854674596
O          111.71193118593770       -8.16845371932810        5.31247658376801
C          110.55976520319005       -4.83939017246597        5.10654837813498
C          110.58145298625598       -3.77123086647238        4.22853820982020
C          110.02179232087592       -2.22736018828962        1.60515113099329
C          108.73299311890617       -2.81061299817039        1.93360100840279
C          107.80232378439901       -2.04620250857733        1.32629401970856
C          108.52419444884666       -1.00464683891049        0.62196099944117
N          109.85421917830293       -1.14732029970782        0.79442586988212
H          106.79639573545366        2.21525052869229       -1.60798588405657
H          108.68252270461980        3.69563041304005       -2.78848763048936
H          110.56832276712639        0.59137176157098       -0.63650771359722
H          112.47977577258830        5.12429136192295       -1.83384525262290
H          112.52051019083005        7.06375295152296       -3.38361036959162
H          110.31474223971053        4.80135153285774       -6.27761025622371
H          110.28232433044631        2.85661244416450       -4.73560600170776
H          114.01819184828736        3.38954181515913       -3.08837795470395
H          115.87007831442742        1.86926007784966       -1.86889312787225
H          115.80508504144686       -2.00214726321027        1.70633318826848
H          113.91955540927700       -3.47489400717305        2.89609861202824
H          112.03160017062034       -0.67788130945283        0.35885540559698
H          112.31783883575361       -5.18390941475622        1.67570938406653
H          112.28506596093210       -7.10454459187664        3.24754076170854
H          110.07303362945034       -4.76089106542545        6.07122910409715
H          110.11481482518616       -2.83350568291292        4.50665833152281
H          108.58266298732264       -3.69348823699541        2.53329797683413
H          106.73019382116441       -2.15926627014808        1.33216388903083
C          121.32585348903670       -0.04940520824758       -0.07004969859564
C          121.95089309493508        0.95010663010424       -0.84084316973653
C          121.29874609734649        1.96285458887265       -1.59052177780151
C          122.26088448843696        2.71799494346062       -2.20355483440988
C          123.52885204323663        2.17991458887956       -1.85246213219672
N          123.29109335943647        1.12017514008532       -1.01962445136610
C          124.78964713710899        2.64336059909422       -2.25006246389995
C          124.80492924902211        3.79256834756135       -3.18576956210973
C          125.41446186857242        4.99516227360449       -2.81508642110410
C          125.42962149026540        6.07219393398517       -3.68244125191863
C          124.83441414336106        5.94416230418904       -4.93411024491866
N          124.84927148126489        7.07171420248123       -5.85023567272131
O          124.31671533611399        6.92670646370408       -6.92031530415720
O          125.39197745193714        8.08136853641748       -5.48189644225188
C          124.22500772079526        4.75506457612851       -5.32377689613842
C          124.21037852329427        3.68576028318656       -4.44675571876819
C          126.01511486517943        2.11389751304232       -1.84165264695377
C          127.30215072420047        2.57794751774063       -2.32877565237558
C          128.23714958440524        1.82807599534946       -1.71017891105095
N          126.18895379145627        1.08927953323371       -0.96231158966767
C          127.51970862223853        0.90313064297254       -0.85451679169383
C          128.17363216846431       -0.03585883876630       -0.03159455703803
C          127.54811721229852       -0.98830316002204        0.79621631285053
C          128.19948615666544       -1.91255040302899        1.65331233313944
C          127.23738794094466       -2.66563900400872        2.26881161504950
C          125.97021133437343       -2.22850766152658        1.79549385583336
N          126.20839893772445       -1.20630150763274        0.91692118925786
C          124.70979762321795       -2.71811059235381        2.16143414989241
C          124.69413840505739       -3.85707825078113        3.10937381705787
C          125.30714754423455       -5.06743324144899        2.77114420203527
C          125.29234580200784       -6.13344800748003        3.65213582751641
C          124.66376876513074       -5.98626991700735        4.88518245064131
N          124.64880018682744       -7.10175801646914        5.81593987501582
O          124.09064727953604       -6.93974496452151        6.87037396358694
O          125.19603794624869       -8.11865103277896        5.47511217060810
C          124.04971379644513       -4.78932171599601        5.24238820183384
C          124.06559098976997       -3.73118776996494        4.35211539458763
C          123.48449398533390       -2.22548709946710        1.70791529919040
C          122.19850404374286       -2.80342200557150        2.05619593622167
C          121.26358922236668       -2.05809570975575        1.43190533701770
C          121.98013190529156       -1.03404090192009        0.69711304783658
N          123.31055250891816       -1.16608373202621        0.87109960471182
H          120.23016174488245        2.09400515454418       -1.64404891427692
H          122.10665783101604        3.57786473253172       -2.83457643300460
H          124.01503010524662        0.55095217383189       -0.59390933635953
H          125.86367185455589        5.08564088186926       -1.83302213034262
H          125.89393037534035        7.00997462394204       -3.40195242843526
H          123.77324814726776        4.67955662526604       -6.30556902784838
H          123.75116600091700        2.75014837030827       -4.74403782291562
H          127.44866724417481        3.35947970506245       -3.05641271540917
H          129.30965813332116        1.87128737662335       -1.81128272775819
H          129.26749318345580       -1.98157289698764        1.78194025937817
H          127.39099548059809       -3.44747181191011        2.99440920614903
H          125.48497129615674       -0.68603653851863        0.43184324637193
H          125.78102292566945       -5.17457555065376        1.80233753360286
H          125.75867885592889       -7.07722771097291        3.39616707687100
H          123.57045135673725       -4.69941187424385        6.20981614078949
H          123.60199586062659       -2.78988552359501        4.62314408094181
H          122.05251603587365       -3.67027347571851        2.67984907170367
H          120.19176623214744       -2.17392358622935        1.44430287607802
C          134.77561804678933       -0.03522921202161       -0.03836749081155
C          135.39826703055951        0.95954879528638       -0.81717101773891
C          134.74419576459081        1.97331057415624       -1.56385256608125
C          135.70427613297645        2.72101846042654       -2.18908076447207
C          136.97280394985771        2.17744875166396       -1.84848427640573
N          136.73752596926732        1.12195623487092       -1.00947254598421
C          138.23200446607410        2.63349521258815       -2.25925011598374
C          138.24482925086369        3.77845050411342       -3.20009971184131
C          138.86560609501478        4.97878157346468       -2.84081501682542
C          138.88121838521536        6.05104314285964       -3.71400525355663
C          138.27471337488220        5.92060699340627       -4.95998001773501
N          138.29084496447166        7.04285496904929       -5.88257620886520
O          137.75067660685576        6.89515699401755       -6.94844624775076
O          138.84334044694825        8.05066633525239       -5.52390741315294
C          137.65308349719970        4.73406661320561       -5.33792843933214
C          137.63829841720192        3.66948525742695       -4.45517283549519
C          139.45890820133260        2.10129989080931       -1.85835392131634
C          140.74386665472969        2.56032470629631       -2.35565653661910
C          141.68122810929586        1.81263590579958       -1.73798414869587
N          139.63604300444732        1.08013725000810       -0.97576102341760
C          140.96716586095323        0.89250782208083       -0.87448738249571
C          141.62422749815877       -0.04521001294974       -0.05270732999109
C          141.00177505172957       -0.99946111230201        0.77530940681549
C          141.65628340110217       -1.92910169771410        1.62410223723007
C          140.69627099690135       -2.68355622654220        2.24124423601305
C          139.42722830465374       -2.24074289443807        1.77841821932472
N          139.66231645128940       -1.21533601485245        0.90285622025240
C          138.16787671229511       -2.72661302114730        2.15311375349704
C          138.15564326508144       -3.86988426731574        3.09593374241943
C          138.75867008432408       -5.08183386713381        2.74573312353235
C          138.74555855745848       -6.15249765522747        3.62109511731528
C          138.12886244189147       -6.00838598486659        4.86048470648712
N          138.11418835390069       -7.12934151605782        5.78466343014248
O          137.56639458162300       -6.96978639829224        6.84487141202363
O          138.65275910987171       -8.14738312922001        5.43364778223152
C          137.52579203725648       -4.80959635430444        5.22998629980164
C          137.53986266846300       -3.74676093716955        4.34530882514573
C          136.94074974274301       -2.22600508190752        1.71377223500807
C          135.65523299920474       -2.79750099742062        2.07435298866786
C          134.71795708751691       -2.04484125193820        1.46259444047193
C          135.43246936985227       -1.02329969553379        0.72228681821410
N          136.76383013773861       -1.16318681077896        0.88179105551498
H          133.67584865096754        2.11002859751340       -1.60723596805212
H          135.54851576360667        3.57950534223306       -2.82161406791008
H          137.46242043634456        0.54988310361366       -0.58924585210789
H          139.32371735212621        5.07122668778169       -1.86305994652043
H          139.35483031111383        6.98681568817590       -3.44252634267873
H          137.19234063710260        4.65670331319378       -6.31539007609911
H          137.16991008761894        2.73565106726837       -4.74359620555046
H          140.88770004396974        3.33739136572173       -3.08856778532982
H          142.75320232531797        1.85353381049781       -1.84548543478404
H          142.72491207815372       -2.00133373605986        1.74560877015207
H          140.85252845639121       -3.46981874826950        2.96147140339509
H          138.93716568729928       -0.69076905347663        0.42503903067054
H          139.22307619602657       -5.18646047288464        1.77207903397784
H          139.20381783431512       -7.09764762149964        3.35577622521068
H          137.05604560971304       -4.72203715781757        6.20228059362949
H          137.08464047026570       -2.80412514715750        4.62571769641285
H          135.51087104784392       -3.66520900376741        2.69718781922045
H          133.64567289109456       -2.15437770920015        1.48663891695712
C          148.22604643118032       -0.02851792087395       -0.05372435525634
C          148.85074375649259        0.96747674464244       -0.82922497577955
C          148.19866708350273        1.98328423142180       -1.57493445191246
C          149.16038159339067        2.73279819787758       -2.19540201508602
C          150.42809081087131        2.18806204570840       -1.85331439737877
N          150.19049079896160        1.13024096822900       -1.01778963670020
C          151.68844202464896        2.64484748562016       -2.25959338698026
C          151.70377316056241        3.79331311896032       -3.19612268630456
C          152.32493243874774        4.99175169149530       -2.83117190236158
C          152.34114382890081        6.06809623170530       -3.69931704196961
C          151.73489980996914        5.94377910760889       -4.94604173675159
N          151.75074525494006        7.07068139872873       -5.86295337105576
O          151.20978090052193        6.92856104866417       -6.92918754038189
O          152.30313784816607        8.07675093745260       -5.49928337143955
C          151.11343390282994        4.75904296762682       -5.32988142903266
C          151.09812680659132        3.69031491457427       -4.45216243936483
C          152.91413479953923        2.11034621030573       -1.85744263985126
C          154.20061038997451        2.56882848456918       -2.35126842911664
C          155.13583014689175        1.81761049782579       -1.73449198283347
N          153.08826313000813        1.08676904444402       -0.97717488089148
C          154.41906640462753        0.89668868615679       -0.87411563460488
C          155.07327494458644       -0.04348568197513       -0.05305074207176
C          154.44837891638136       -0.99632163105455        0.77486634750036
C          155.10077915883659       -1.92592827338098        1.62527658125110
C          154.13910890452183       -2.67775709771586        2.24306358156386
C          152.87128437731002       -2.23383423831269        1.77823702658507
N          153.10854060208135       -1.21028738504304        0.90117531646492
C          151.61079299723431       -2.71756590672759        2.15170605195660
C          151.59527928730694       -3.85718838077455        3.09896442081629
C          152.19414246953431       -5.07261955398627        2.75398800076386
C          152.17796279962468       -6.13913412570158        3.63440506756899
C          151.56278950607290       -5.98704537769282        4.87359580060814
N          151.54566406909868       -7.10327535818331        5.80340921859933
O          150.99790514585470       -6.93728370367620        6.86267516778730
O          152.08125975877022       -8.12453574730714        5.45725252240641
C          150.96375744401183       -4.78462151455345        5.23781624001716
C          150.98048211535075       -3.72615969467135        4.34798424525962
C          150.38534059208598       -2.21744617892789        1.70779148141675
C          149.09869543682032       -2.78793960662281        2.06569075227908
C          148.16351392863220       -2.03681179571544        1.44890417187720
C          148.88055963109829       -1.01649964272444        0.70916985262050
N          150.21124474859477       -1.15625804630865        0.87300739721879
H          147.13044175288036        2.12031069447033       -1.62042645890643
H          149.00620919521046        3.59323699543664       -2.82567300453106
H          150.91436537360815        0.55702553657824       -0.59736524598002
H          152.78256978613524        5.07962127747676       -1.85277564011811
H          152.81477304911110        7.00250860690406       -3.42322918503515
H          150.65300751460569        4.68640259189358       -6.30785437345137
H          150.62970574826272        2.75796289771791       -4.74527856838066
H          154.34677683337870        3.34785600824032       -3.08165263399031
H          156.20805370552605        1.85700883215797       -1.84005434749033
H          156.16916979600353       -1.99953463066510        1.74800522704378
H          154.29345364104617       -3.46315498662224        2.96464245746016
H          152.38442885326870       -0.68521694769162        0.42230806084086
H          152.65774075270699       -5.18325006124903        1.78061739517475
H          152.63280182872268       -7.08708514698181        3.37324710638648
H          150.49517906289626       -4.69084780174504        6.21008590277393
H          150.52822634191827       -2.78078073184894        4.62390480915645
H          148.95254839698967       -3.65410828750967        2.69027528267384
H          147.09116052667670       -2.14628611350386        1.46968708529089
C          161.67512675478349       -0.07804036778363       -0.04194993406441
C          162.30558458298020        0.91854943056395       -0.81178206175654
C          161.65870223893000        1.93876478996997       -1.55617353823726
C          162.62445134348269        2.68796129208909       -2.17044004338376
C          163.88971056029544        2.13941467050671       -1.82486222098094
N          163.64637332679138        1.07868959805219       -0.99462699431428
C          165.15227391858153        2.59855445544548       -2.22075715501286
C          165.17157471669762        3.74757616800446       -3.15654467773833
C          165.78626995117276        4.94842864447086       -2.78884866969024
C          165.80601871290401        6.02327785135034       -3.65886506364130
C          165.20950193951967        5.89516061155876       -4.90990233544514
N          165.22952257297928        7.02009502055196       -5.82903782656007
O          164.69468546472112        6.87520252348660       -6.89808415391757
O          165.77886283122143        8.02749456428945       -5.46453354913183
C          164.59369304682713        4.70823540914857       -5.29612545537086
C          164.57503660920511        3.64102633320228       -4.41672504519014
C          166.37596896082474        2.06512626360418       -1.81036916201177
C          167.66588460913019        2.53385212551370       -2.28540933205801
C          168.59743437618198        1.78057654114853       -1.66584994576569
N          166.54444816512253        1.03299024111954       -0.93951985234809
C          167.87521665715647        0.84564225557421       -0.82531690026916
C          168.52380607813404       -0.11186029495005       -0.02070194805920
C          167.89375778009722       -1.08617416698042        0.77692359070021
C          168.54073703487029       -2.03971396901302        1.60486094410747
C          167.57486856433343       -2.80072506739741        2.20443920400398
C          166.30939387545729       -2.33777129239226        1.75162042302097
N          166.55247095734646       -1.29665606322152        0.89734225239588
C          165.04621746313964       -2.81697178721506        2.12215199168588
C          165.02563795552410       -3.97040432130717        3.05283035130977
C          165.60508474789341       -5.18826112219235        2.68432315666052
C          165.58642626311283       -6.26625173379530        3.55064432085814
C          164.98869490927348       -6.12322436101953        4.79943013405970
N          164.97175823909762       -7.25050256330865        5.71564940991836
O          164.44078763329983       -7.09152098088302        6.78452810018011
O          165.49037812286582       -8.27362957655552        5.34952931374668
C          164.40813349205331       -4.91886092306030        5.18652631948071
C          164.42680965555940       -3.84897613259780        4.31051561916432
C          163.82303029972744       -2.29904355560092        1.69301724546500
C          162.53304448045898       -2.86114633669193        2.05256802694159
C          161.60150388174827       -2.09577905539884        1.44789558917467
C          162.32395408118185       -1.07520905541897        0.71369142278972
N          163.65408510168655       -1.22760170928887        0.87041296384956
H          160.59098312508300        2.07853109378608       -1.60516092747444
H          162.47476760931073        3.55112998681462       -2.79805841404280
H          164.36726511315430        0.50189978382941       -0.57398379311327
H          166.23597689221958        5.03952140221903       -1.80709375676177
H          166.27505179879867        6.95945863259948       -3.38093577135060
H          164.14039458280388        4.63269302651548       -6.27720089503933
H          164.11103358521325        2.70697013669923       -4.71147461434772
H          167.81698928834345        3.32116047926655       -3.00579999742447
H          169.67050632576823        1.82568882765347       -1.75937706644654
H          169.60872860010863       -2.12204559084744        1.72563038561299
H          167.72462875115096       -3.60444185301051        2.90657189410604
H          165.83145770393185       -0.75568465715440        0.43168858699178
H          166.05599234062859       -5.29120040158373        1.70418521236727
H          166.02651864586869       -7.21602903274460        3.27147208929020
H          163.95263686576624       -4.83242949062717        6.16566488231819
H          163.98905988406395       -2.90212024233623        4.60419593588794
H          162.38233829540277       -3.73145807142479        2.67029373659190
H          160.52829558010387       -2.19560366711078        1.47338217461606
