318
 energy: -558.225422143817 gnorm: 0.000574228809 xtb: 6.5.1 (b24c23e)
C           61.59091104233074       -0.09667234987263       -0.05596208735382
C           62.21003159502852       -1.30721424679086       -0.33862581652509
C           61.56833001783005       -2.53854588901189       -0.65169435834333
C           62.53777189265528       -3.48169278083011       -0.84436273841464
C           63.80337936913999       -2.85899512236873       -0.64473911787774
N           63.55499068792658       -1.54804474831666       -0.35385813098602
C           65.07173610427840       -3.44246583035783       -0.74294628927970
C           65.11668692399707       -4.89221648358836       -1.04518342290255
C           65.75216456677765       -5.35382262622900       -2.20225301140372
C           65.79135974487147       -6.70533754528210       -2.48521004419422
C           65.20105266843704       -7.62819844779218       -1.61524711119425
C           65.26041208325400       -9.06570631270887       -1.93697250139133
O           65.79274049478298       -9.50958269848667       -2.92194613741081
C           64.56759692233383       -7.16880058653048       -0.45803885340814
C           64.52332788558469       -5.81452889466015       -0.17847489554937
C           66.28227695311087       -2.76347099451538       -0.57752574984070
C           67.58438489712702       -3.40552857269739       -0.61696044601933
C           68.49650851643001       -2.43162542393480       -0.41990147799857
N           66.42453790786351       -1.43184933589890       -0.33832157294510
C           67.75066035209898       -1.19908378144523       -0.25153682011818
C           68.37571737799568        0.04690441573063       -0.05079509685922
C           67.73052235636779        1.27875491485767        0.16187696918744
C           68.36434749386052        2.53608848355716        0.34838802009899
C           67.39073287775226        3.47216560371557        0.56023251230183
C           66.13100545770966        2.81213150096683        0.51730143943536
N           66.38766477081225        1.49169392672489        0.26159178824916
C           64.86422817446284        3.38595656461504        0.67403940508559
C           64.82284783547631        4.83177993583585        0.99117008435046
C           65.43632227805797        5.31885310167691        2.14999898972136
C           65.39582000304691        6.66703058542638        2.44794085118171
C           64.74581320912847        7.56195178670832        1.59147753031506
C           64.72127630539211        8.99665662445875        1.92931993424326
O           65.24180929958924        9.46173884602945        2.91092229869810
C           64.13434121799696        7.07748069214722        0.43254385340617
C           64.17086823452401        5.72640678107077        0.13740125363338
C           63.65257934758251        2.69555783722235        0.55697013345878
C           62.34366163815206        3.29323294468319        0.77326914312993
C           61.43860935276687        2.31677668753385        0.56251362614980
C           62.19350184089423        1.12053568157992        0.23237892908036
N           63.52339400946846        1.38396579621588        0.24843841702818
H           60.50572688291355       -0.11436183144367       -0.05904229154117
H           60.50055324756175       -2.67054348877746       -0.72305131631192
H           62.39504236573294       -4.51643926759416       -1.11047583026519
H           64.27463207533637       -0.85499577996410       -0.17770421502766
H           66.19969342496883       -4.64021374958630       -2.88471868482457
H           66.27729681623045       -7.07070823586751       -3.38354464143122
H           64.76755631815952       -9.72126124162237       -1.18760337021761
H           64.11096074913974       -7.87804291953471        0.22468448596813
H           64.04375216021046       -5.46301922467483        0.72822974931198
H           67.75506465798250       -4.46000534797090       -0.76107201020968
H           69.57080672932835       -2.51398002846172       -0.38028174107268
H           69.43027737557514        2.69444097608806        0.31857173152546
H           67.52931630487650        4.52869289850247        0.72162460808754
H           65.67128138396563        0.78011975729817        0.16098828817260
H           65.92798212952206        4.62641384225332        2.82405450390221
H           65.86356341557340        7.05099498115848        3.34819101273011
H           64.17713118249436        9.62881124810456        1.19556947633471
H           63.63161013401594        7.76529054266265       -0.23960163364133
H           63.70838633269397        5.35609701251351       -0.77054409336614
H           62.16660481287324        4.31715002553130        1.06049091707503
H           60.36304831554408        2.36727645713029        0.62683891733932
C          122.14532463430218        0.08803331624509       -0.01868239856130
C          121.52684264879926        1.25779818120086        0.40297320891874
C          122.16915212375109        2.46703636601318        0.79173432446387
C          121.20065115969909        3.36455508835165        1.14232274594764
C          119.93510425173298        2.72910145243966        0.98767453515088
N          120.18250919694006        1.46573266136770        0.53207842513609
C          118.66753884024170        3.27617092410860        1.21738567932872
C          118.62598409363090        4.66342775994683        1.73644356094267
C          117.99663470062765        5.67635869733275        1.00621322640400
C          117.95995372560768        6.96840941516277        1.49380810316320
C          118.54692835848715        7.27742203099836        2.72544466934153
C          118.48987083006131        8.66247961057200        3.22711176340651
O          117.96294505639386        9.56835205521969        2.63352597255570
C          119.17521408513178        6.26633177351941        3.45648075774600
C          119.21685987128305        4.97390733777152        2.96466872500008
C          117.45614358569134        2.61387248048269        0.99959698895430
C          116.15407806600601        3.18527339443316        1.29547199116904
C          115.24174625660763        2.24969892310821        0.96177764906468
N          117.31347659048652        1.35017562138101        0.51643360325063
C          115.98743979447789        1.10456543085055        0.47519859744864
C          115.36231550734813       -0.07970457031292        0.03975752763877
C          116.00533876422860       -1.24950627252831       -0.40300116883616
C          115.36817475875189       -2.43055279267841       -0.86893265782687
C          116.34085437639382       -3.32853933108408       -1.20961751799989
C          117.60388470064814       -2.72556881077650       -0.95284114574391
N          117.34911304562262       -1.46850418673840       -0.47334090774626
C          118.87078997469250       -3.27606740390667       -1.17603334713628
C          118.91316247825802       -4.66383754156987       -1.69143273431656
C          118.35107027357260       -5.71213581460146       -0.95586516700239
C          118.38989543608764       -7.00494023383250       -1.44113420796353
C          118.98649592620112       -7.27994067966470       -2.67617334985793
C          119.00877920404160       -8.66679305982637       -3.17533528509600
O          118.53117931857149       -9.59951398963315       -2.58141475351784
C          119.54789733126556       -6.23377237652672       -3.41244017120807
C          119.51355443696741       -4.94024177072190       -2.92332732277768
C          120.08284596144121       -2.61367635203426       -0.95095829294631
C          121.39336101647315       -3.21920572063518       -1.13294226305414
C          122.29864798823510       -2.27456677331192       -0.80876455971390
C          121.54276920198656       -1.09705483897099       -0.41885480746835
N          120.21204846030138       -1.34092334391102       -0.50910015179839
H          123.23033964276907        0.11128131406388       -0.03157609629876
H          123.23661353922691        2.61935327004153        0.79240352630224
H          121.34367643109874        4.38151883367015        1.46979402189847
H          119.46241025840986        0.78430112849244        0.31672213975505
H          117.55169744479916        5.44284547240635        0.04561676800468
H          117.47827123390832        7.76077711466305        0.93099173761912
H          118.97982003686521        8.81046189077164        4.21318429122003
H          119.62970592003660        6.49622184246385        4.41473429561990
H          119.69250129141156        4.18872209942071        3.54167454796426
H          115.98321279586379        4.16356688310517        1.71440624418059
H          114.16746056547454        2.30057030790302        1.03765575055880
H          114.30057272751108       -2.56323643328535       -0.93799425867951
H          116.19914909534835       -4.31735405860144       -1.61412874889403
H          118.06750904570575       -0.79794001735468       -0.22047546352951
H          117.90064487407258       -5.50536337343954        0.00843285648898
H          117.96147389418198       -7.82408387055211       -0.87358300962458
H          119.50660610464442       -8.78869004356912       -4.16097047680881
H          120.00939098256289       -6.43748575785844       -4.37323050488801
H          119.93681861066545       -4.12843357012618       -3.50403513080754
H          121.57130783747610       -4.23391226823267       -1.45072818433868
H          123.37529135896001       -2.34050046499096       -0.81414070552640
C           71.00534089761844        0.09807772960341       -0.06374355523828
C           69.78408928901381        0.07544435077375       -0.05776503702459
C           72.35651827877292        0.10899371581534       -0.06641201682409
C           73.57810764092108        0.10873228827389       -0.06583875229747
C           84.46887180969807        0.00447716813522       -0.02990532323632
C           83.24627732368521        0.01269202573794       -0.03512810032895
C           85.81730713566884       -0.00227141986856       -0.02550832011119
C           87.03995988561502       -0.00773761184275       -0.02083825767974
C           97.92345576381749       -0.03409305982601       -0.00646551269521
C           96.70083789418001       -0.02751515580718       -0.01300808070245
C           99.27186150589286       -0.03854872137412       -0.00060890991563
C          100.49446308321048       -0.04578058543326        0.00842230742430
C          111.38064216396316       -0.13366599985135        0.03892819700219
C          110.15928964396606       -0.12858464566309        0.03421781596614
C          112.73221134942489       -0.12435096790273        0.04112230084715
C          113.95330175363634       -0.10769601346488        0.04173674697884
C           74.98589487339069        0.09864347977275       -0.06202629050279
C           75.62147349755303        1.04661026148247       -0.88506265862012
C           74.98148625490256        1.98279230605033       -1.73827859291428
C           75.95318049524141        2.71323440111413       -2.36561346255660
C           77.21590410709331        2.25040798812521       -1.90436886753326
N           76.96474098238475        1.23816212060743       -1.01796457713800
C           78.48154598669041        2.70961065113931       -2.29030244708924
C           78.51166828802823        3.83530529481737       -3.25423016365154
C           79.11707547565173        3.67726153916202       -4.50486086788902
C           79.14895924927433        4.72683129816368       -5.40242770191214
C           78.58081678226954        5.96083115953703       -5.06887548046812
C           78.63461486854092        7.06791672341650       -6.04127333567444
O           79.14393758955867        6.97859940429944       -7.12886290118839
C           77.97588416506844        6.12015924488001       -3.81990430242428
C           77.93920135531982        5.06674454632697       -2.92361123198133
C           79.70176441076660        2.19881837898257       -1.84341622140991
C           80.99373002047811        2.74844906840159       -2.21484639529803
C           81.92257737192764        2.00003053077668       -1.58509731419771
N           79.86700518769591        1.15094306786798       -0.99030844089945
C           81.19674448512858        1.00154297911783       -0.82491818424573
C           81.84171558791856        0.02417576317216       -0.04060091125945
C           81.20459196910865       -0.95355362189885        0.74770734177244
C           81.84367899241613       -1.96076510527966        1.51594468723965
C           80.87166095212051       -2.69594828144986        2.13735647964945
C           79.61003320311356       -2.15099166588131        1.77319426397967
N           79.86207813189381       -1.10666730013699        0.92463461277263
C           78.34488853918710       -2.59881968488402        2.17302741121623
C           78.31945521550109       -3.73432671152552        3.12540399493076
C           77.70684292729672       -4.93965976071673        2.77115331422917
C           77.68691661060817       -6.00263578717821        3.65644626422655
C           78.27568285109271       -5.87971959888884        4.91725825212230
C           78.26833736594590       -6.99698952499777        5.87943414076134
O           78.76557706835820       -6.93923195130608        6.97475902118547
C           78.88556763409089       -4.67241358905815        5.27370814471529
C           78.90982459926101       -3.61313894599200        4.38722602439447
C           77.12441267307891       -2.06497852376792        1.75356626966147
C           75.83290454024520       -2.51872204943445        2.23887974239415
C           74.90398894878520       -1.76800130432131        1.61218921072326
C           75.62922455770803       -0.85088363526782        0.75486932632101
N           76.95962448628097       -1.04603314464852        0.86712990994557
H           73.91383006309627        2.07343110003802       -1.85661308976383
H           75.80961104470887        3.49630312955378       -3.09202104449282
H           77.68116252123700        0.70244139927362       -0.53936422321137
H           79.54830659891826        2.71870318938828       -4.77033997303781
H           79.61286474848568        4.61086189270701       -6.37605986491891
H           78.16156620033679        8.00876571423610       -5.68753872018362
H           77.53595706716315        7.07516641693332       -3.55152163803364
H           77.48245946504744        5.19878744595025       -1.94915658043915
H           81.14750602594600        3.60038002613388       -2.85694137511288
H           82.99602862892637        2.09803451094371       -1.60985763017085
H           82.91076041964949       -2.10182626080518        1.57510163376310
H           81.01448789144322       -3.54692905541507        2.78296155073672
H           79.14667807960414       -0.53525727360957        0.48761770395434
H           77.26085702942709       -5.04235120395751        1.78834940020196
H           77.21450794279241       -6.93678460164321        3.37054522000470
H           77.76015584518672       -7.91328719032148        5.51047183844055
H           79.33602226880311       -4.58420563267469        6.25653510578785
H           79.37126272617350       -2.67431990521330        4.67218469984415
H           75.67974064285305       -3.29499657996360        2.97081587918664
H           73.83090727242590       -1.80447423889926        1.71014183705878
C           88.44446366872141       -0.01031434591058       -0.02008010683699
C           89.07111422887337        0.91374728712180       -0.87891829755091
C           88.42086169018620        1.81644982688759       -1.75939398319886
C           89.38420821884490        2.54789195634369       -2.39894309828346
C           90.65116099772737        2.11828381444640       -1.91871266579786
N           90.41136586262651        1.12210650752154       -1.01068614940656
C           91.91119075287612        2.59454901348317       -2.30265936176934
C           91.92621729888381        3.70998196097658       -3.27869635208038
C           92.54230044517207        3.55230649624591       -4.52404664637386
C           92.55532012098853        4.59276226919029       -5.43277821757674
C           91.95740945208713        5.81702386309200       -5.11596481367328
C           91.98940847132809        6.91374206386663       -6.10129860634205
O           92.50920538917968        6.82480917756609       -7.18388206752199
C           91.34297072415069        5.97644979213234       -3.87168805162346
C           91.32516097427049        4.93213572328150       -2.96428910024205
C           93.13639352842432        2.10931857455978       -1.84147498770267
C           94.42251449857446        2.67250327027969       -2.21198719172148
C           95.35830261545833        1.94111631000257       -1.57233054763689
N           93.31138559864306        1.07185726999314       -0.97734952449707
C           94.64221502100672        0.93996942596621       -0.80649924248344
C           95.29634649180107       -0.02619249033226       -0.01584341699588
C           94.66943317403799       -1.00270387445178        0.78267486157046
C           95.31952081246570       -2.00088013500522        1.55321883505409
C           94.35625241478226       -2.73332423321468        2.19171046400767
C           93.08959187769052       -2.19503379067572        1.83648694169309
N           93.32927049476889       -1.15921410411939        0.97411157940315
C           91.82953436963271       -2.63679719246626        2.26048060709601
C           91.81645539957553       -3.75631880785880        3.23160250491859
C           91.19106768932215       -4.96388239107356        2.90825534240758
C           91.18285391713347       -6.01289920656723        3.81024050814759
C           91.79680610707071       -5.87377986227875        5.05726054809900
C           91.80323043529772       -6.97617853486310        6.03666420483365
O           92.32729774873424       -6.90579973439118        7.11858972617450
C           92.41939842741846       -4.66430078144931        5.38296236426015
C           92.43144538282948       -3.61882930668479        4.47997781046395
C           90.60462104168963       -2.10984968114140        1.84703523656974
C           89.31887870749028       -2.54792936502495        2.36037466871064
C           88.38304453664499       -1.81460091186264        1.72292916728565
C           89.09884045617110       -0.92458605085467        0.83008024321018
N           90.42935393694131       -1.11476244213678        0.93431062742244
H           87.35265237724124        1.88686663837424       -1.88595246118744
H           89.23200911577447        3.31049454314612       -3.14507758664014
H           91.13393335279335        0.61122481094344       -0.51450208508914
H           92.99590193686581        2.60079959765645       -4.77729878215878
H           93.02642316768862        4.47667946870300       -6.40293957556737
H           91.49050140473837        7.84638765672703       -5.76176030875477
H           90.88029689218548        6.92412618610919       -3.61586474578341
H           90.86002655892101        5.06423551717110       -1.99380606587219
H           94.56778092410029        3.52067488773156       -2.86102934303578
H           96.43053908455923        2.05240714472754       -1.59363786553608
H           96.38755710822298       -2.13835583409861        1.60248517500075
H           94.50858259599073       -3.57807620593893        2.84328682586531
H           92.60690510213236       -0.59505497658273        0.53913643160801
H           90.72589356706112       -5.07965576761713        1.93583558935539
H           90.70047942786550       -6.94890434763949        3.54798940965605
H           91.28021940856176       -7.89416872188821        5.69367707964184
H           92.88925931627902       -4.56328471438315        6.35541707520268
H           92.90252545583492       -2.67808022076997        4.74182679045866
H           89.17395428294357       -3.30213503109724        3.11668452935188
H           87.31107838313605       -1.84715559604334        1.83423245142287
C          101.89897733008063       -0.05373411663337        0.01457615109532
C          102.53386170387469        0.87193876125859       -0.83591169416354
C          101.89315909365600        1.78114328457669       -1.71689071917967
C          102.86344314066599        2.51534123997037       -2.34224334514097
C          104.12550824702438        2.08171263659195       -1.85182605072800
N          103.87556586971716        1.07902889950724       -0.95374540393149
C          105.38935581751589        2.56322750066768       -2.21453644906655
C          105.41618276054743        3.68520564802146       -3.18234448896881
C          106.05554555247579        3.53639919097963       -4.41713750183192
C          106.07521732130498        4.57915850493064       -5.32294892201275
C          105.46139323903121        5.79739996340265       -5.01340946288595
C          105.49775374436557        6.89552144482043       -5.99696854898180
O          106.02897286505848        6.81060555629823       -7.07434444340299
C          104.82599421764301        5.94893212016526       -3.77870092127908
C          104.80121104994623        4.90206461842286       -2.87438409577033
C          106.60959790646105        2.07335366791924       -1.74298747984994
C          107.89900848829531        2.64859711182415       -2.08373415980428
C          108.82878051210417        1.90277382245353       -1.45251940821786
N          106.77563358657071        1.01660349155175       -0.90279842826148
C          108.10613784038631        0.87947163137279       -0.72257954841803
C          108.75104335257919       -0.11944747654790        0.03098105981578
C          108.11666833286668       -1.11915236373746        0.79107350915351
C          108.75629969512939       -2.14792785664063        1.53042194478620
C          107.78635843153911       -2.88013863766243        2.15828432394215
C          106.52550846185154       -2.31220542751283        1.82752961805332
N          106.77491958553344       -1.26135774535005        0.98712974614714
C          105.26249170756407       -2.73821985294680        2.25854139996431
C          105.23906641561798       -3.86659731532855        3.21882579161066
C          104.58093101999036       -5.05670094802991        2.89555127295925
C          104.55790673886941       -6.11095226840119        3.79111844202845
C          105.18999502515557       -5.99481899165328        5.03143454906906
C          105.17813006842702       -7.10188071014511        6.00543252737854
O          105.71485430679220       -7.05041341347743        7.08228703907792
C          105.84748400539669       -4.80367195715033        5.35619134714711
C          105.87403548329023       -3.75300651167476        4.45965545489955
C          104.04252882533612       -2.18612712130280        1.86288831132758
C          102.75418130094147       -2.60946933946500        2.38255029810157
C          101.82410641934624       -1.86177025755584        1.75348339011961
C          102.54619571402480       -0.97625960961155        0.86123457152330
N          103.87488721331323       -1.18269945377596        0.95825390902621
H          100.82628507950794        1.85368647750578       -1.85324423344223
H          102.71918452258937        3.28266229997381       -3.08509502058306
H          104.59218708218346        0.56275749469359       -0.45456096462862
H          106.52112753026377        2.58925421383286       -4.66498002337881
H          106.56347759407383        4.46940195312531       -6.28532377031906
H          104.98740315544455        7.82393487957908       -5.66290637371498
H          104.35152745200051        6.89218901805604       -3.52822099949181
H          104.31921538417672        5.02804832420221       -1.91134674458493
H          108.04956992742520        3.51405939000415       -2.70827403372836
H          109.90091485993604        2.01626727580981       -1.45857662088665
H          109.82241075553475       -2.30305994335211        1.56797224625342
H          107.92953123896775       -3.74322022193775        2.78757736590132
H          106.05878773542223       -0.67390734378964        0.57321395276856
H          104.10102370334177       -5.15467034699077        1.92834780410210
H          104.04887036114965       -7.03287386755517        3.52936159290221
H          104.62729792027687       -8.00395330886089        5.66393995556890
H          106.33199296862404       -4.72066601003926        6.32313977948665
H          106.37146886453674       -2.82585032009518        4.72131297001023
H          102.60366467612742       -3.36473031352326        3.13668612400423
H          100.75245190764727       -1.88125739023844        1.87082895679952
