450
 energy: -708.431581409044 gnorm: 0.000339102702 xtb: 6.5.1 (b24c23e)
C           59.18710528378913        0.07324496449844       -0.00544355665255
C           59.79805529796688        1.26939226673971        0.34837501983813
C           59.14970273382755        2.47503251065920        0.73710942283501
C           60.11453984856668        3.40840150165109        0.99299686355960
C           61.38345613307772        2.80613108548791        0.75779052406940
N           61.14171130388328        1.51530643812222        0.38176991722593
C           62.64712682413477        3.39270520043619        0.89113512719188
C           63.86190230930526        2.73783795782052        0.67810440707165
C           65.15715855006536        3.38907651100504        0.75881457347616
C           66.07964062305001        2.43997347076259        0.49728351725956
N           64.01947718851980        1.42436479001039        0.35363973743247
C           65.34673958537464        1.21338345236531        0.24980773223082
C           65.98586697805072       -0.00994700638545       -0.04021473551622
C           65.34810269192256       -1.23243517752939       -0.32627057088337
C           65.98923302232119       -2.47213328959986       -0.58840649339108
C           65.01989687389231       -3.40469129882029       -0.83453946091925
C           63.75559159299814       -2.75969808695837       -0.73908190863848
C           62.49359857125017       -3.33619485811514       -0.91433703383219
C           62.45948238597006       -4.77057898194908       -1.29178576880804
C           61.84040208663813       -5.70162237921389       -0.45844659770524
C           61.80645511995032       -7.04781828602603       -0.80509357176661
C           61.12401367798038       -8.04602760062424        0.09072069121690
C           62.39275360088286       -7.45994276501833       -1.99828196874168
C           63.01393138945004       -6.54321527356714       -2.84098551101622
C           63.62586799282943       -6.99555823784395       -4.13929193723826
C           63.04567877133925       -5.19992139875324       -2.48177527358613
C           61.27700720146942       -2.66270927893224       -0.76163419379004
C           59.97425802111825       -3.26380959509206       -1.00202560893045
C           59.05870318922884       -2.30813044403736       -0.74444703332571
C           59.80103327629828       -1.12144640244419       -0.35775030904109
N           61.13367589868684       -1.36892972176431       -0.38898909752826
N           64.00629684989404       -1.45070068832727       -0.42006260112289
C           62.67746048717279        4.82157070969402        1.29171381846494
C           63.29086550000315        5.20282891069340        2.48329295631957
C           63.31315507060338        6.53913870082278        2.87155901979470
C           63.98700417869032        6.93608957825937        4.15721687686458
C           62.72021975741414        7.49583539686034        2.05496121117946
C           62.10457233816956        7.13107884595880        0.86021951888013
C           61.48465326009493        8.18007781380635       -0.02298473460357
C           62.08497638776408        5.79296040650537        0.48457657683609
H           58.10175881723455        0.08227453369221       -0.00253502518884
H           58.08098677784702        2.59723476533263        0.81360833802393
H           59.96657620785532        4.42383116818485        1.32311194293061
H           61.86437427327451        0.83761044607985        0.16346701508129
H           65.31579416776202        4.43367052022385        0.97254740049995
H           67.15306386771556        2.53604435434699        0.46182769985963
H           67.05676818081139       -2.62248528030198       -0.58152801507786
H           65.16377985167432       -4.45004086144421       -1.05405429490998
H           61.40061630819579       -5.37068350124009        0.47600026116667
H           60.08366434306892       -8.17060131685105       -0.21852030540501
H           61.61328311944600       -9.01857206860841        0.03203075071587
H           61.13192226579373       -7.70801957137801        1.12705663538934
H           62.36785609725905       -8.50945019629099       -2.27312264995033
H           64.45626341397603       -6.34892051060360       -4.42356959512593
H           63.98676556309093       -8.02138103926944       -4.06201335421498
H           62.87804223020475       -6.95762509848640       -4.93474849303395
H           63.51426143247476       -4.47450555113850       -3.13795569584750
H           59.80852419647648       -4.27587206493652       -1.33471081815889
H           57.98341481120173       -2.36754320189590       -0.80878258930211
H           63.28679867556240       -0.75101978722114       -0.27056373179302
H           63.73664168479192        4.44635329744152        3.11982346087687
H           63.72710543411627        6.24226189483657        4.95763783467150
H           63.69698262598455        7.94331527215902        4.45596057656193
H           65.07167546956465        6.91376648002894        4.03122698378850
H           62.73412889462312        8.53934788792004        2.35244116238974
H           61.01500855745255        8.96118817124771        0.57565462670518
H           62.25412915592956        8.64576753593553       -0.64290944577258
H           60.73529705165436        7.74157101742950       -0.68207204140168
H           61.62072988644660        5.49877256096285       -0.45047602330901
C          159.04665092453106       -0.06832189753872       -0.07111198743977
C          158.43495830088062       -1.28202692585608       -0.35744850050370
C          159.08263269187177       -2.52119097560462       -0.62209518525841
C          158.11703755248413       -3.45918609222262       -0.85744208888063
C          156.84830675461052       -2.82042028043761       -0.75537265942286
N          157.09097825396097       -1.51280598754145       -0.44342480396604
C          155.58397151189766       -3.39709208169402       -0.92116165702860
C          154.36965752874602       -2.72318491521875       -0.77602022502128
C          153.07346166277739       -3.33083963824928       -1.01864898987966
C          152.15184761336363       -2.37563098799136       -0.77729775095883
N          154.21334446821140       -1.41957295500283       -0.41323411438686
C          152.88616966692106       -1.18481316681868       -0.39555729694460
C          152.24795429496669        0.02572558226278       -0.05395182988808
C          152.88629951754038        1.23137866600777        0.29500449623648
C          152.24578054154239        2.44003895724026        0.67642470613386
C          153.21587370247764        3.36975749605351        0.93027506296854
C          154.48013449194801        2.75912455114045        0.70131214433681
C          155.74298323386694        3.34275992237875        0.84350650900900
C          155.78002125541880        4.77279258575853        1.23706998093562
C          156.39460414127402        5.15598089763784        2.42877010121776
C          156.43179811023649        6.49362316708152        2.80664116479855
C          157.10934404244819        6.90309996495793        4.08644299502989
C          155.85330114605367        7.45221705376813        1.97975353995403
C          155.23693350896355        7.08616972468685        0.78707878939380
C          154.63376695947650        8.13274011327214       -0.11046418131518
C          155.20188486529412        5.74462960836087        0.42149682216122
C          156.95889788062701        2.68061746136436        0.64285930115130
C          158.26226937360514        3.31998489111911        0.73646047143718
C          159.17695627333018        2.36310146752526        0.48033655549840
C          158.43357113057553        1.14279322927852        0.22145552704489
N          157.10109107234979        1.37381315027939        0.31843754644110
N          154.22845073252802        1.46470877863282        0.32799498652424
C          155.55185926766833       -4.83723889451516       -1.27907230803937
C          154.94561761566601       -5.75817013129300       -0.42710070875550
C          154.92026847991619       -7.11144749315915       -0.75095661791575
C          154.25347933245098       -8.09260302619385        0.17493654221322
C          155.50295437006974       -7.53866343747126       -1.93911915615326
C          156.11154593904448       -6.63053668302287       -2.80184904208679
C          156.72001480316013       -7.10471692046067       -4.09400080945487
C          156.13431401881155       -5.28187013068030       -2.46608929188365
H          160.13198805478336       -0.07750202177218       -0.07642775951834
H          160.15145685667093       -2.66455665715451       -0.62237210982809
H          158.26434680967037       -4.50451281583433       -1.07553712925973
H          156.36866842020140       -0.81658460366287       -0.29263735190784
H          152.91350366660092       -4.34614235921982       -1.34356791679532
H          151.07813911969978       -2.44251136665711       -0.85050813836246
H          151.17808575446369        2.56954391792311        0.75099439937767
H          153.07242065297282        4.38695035075546        1.25644110474139
H          156.82843746866914        4.39818992500026        3.07194419306646
H          158.15103895892446        7.16475168283242        3.88672856592199
H          156.61966963664511        7.77353793955410        4.52374731517044
H          157.09680925037890        6.08888910343980        4.81115085708630
H          155.88065452648749        8.49742577948031        2.27029771269976
H          153.80559519108959        7.71992249432770       -0.68684575935238
H          154.27195102939100        8.98113641485232        0.47079059017740
H          155.38708746051032        8.49832087894130       -0.81210192902592
H          154.73718224590485        5.44967141263639       -0.51306833120179
H          158.42889782232564        4.36243352666181        0.95545252084781
H          160.25231678353063        2.44579932218573        0.45431956767964
H          154.94768878644206        0.78094530341844        0.11640619799611
H          154.50765368456848       -5.41573584569863        0.50406395621832
H          154.51564606467764       -7.88162278673901        1.21239985191308
H          154.54692268177345       -9.11520072581586       -0.06182742143298
H          153.16816979831222       -8.01567133376635        0.07949869831723
H          155.48637866867310       -8.59259906234131       -2.19709004548795
H          157.18591986579642       -8.08229273442502       -3.96626977731441
H          155.94457255305772       -7.19683677642023       -4.85786382868894
H          157.47013825198741       -6.40012438233780       -4.45330001651417
H          156.59295772890329       -4.56351163567787       -3.13691091399202
C           67.39115934952322       -0.02565569872818       -0.04604095249555
C           68.61607340214283       -0.04387030332184       -0.05035570633778
C           69.95859151513787       -0.05825239197168       -0.05500691756458
C           71.18967622828085       -0.07136289521595       -0.05759490188816
C           72.52744555783171       -0.08204588269597       -0.06118700792184
C           73.75865860760113       -0.08999535260946       -0.06381283874614
C           75.10102162342039       -0.09417299551457       -0.06712168218789
C           76.32627569060158       -0.09329191738479       -0.06978169699012
C           86.01569682657180       -0.05314750300883       -0.04872916987769
C           87.24130778148765       -0.04485845420206       -0.04778847449588
C           88.58336738045425       -0.03868986878716       -0.04546915976198
C           89.81504059323063       -0.03276793899824       -0.04508076926750
C           91.15246120951655       -0.02747670391404       -0.04670927363252
C           92.38414557854452       -0.02314820972482       -0.05096627477593
C           93.72620905025967       -0.02150238096570       -0.05422985799590
C           94.95183489530483       -0.01827022932983       -0.05811115901748
C          104.64811621521005       -0.02499132559772       -0.04917653153176
C          105.87380930255196       -0.02106200660644       -0.04580237010083
C          107.21595940489343       -0.01987714734166       -0.04295691645059
C          108.44769604000209       -0.01725760945028       -0.04188297861864
C          109.78521326576454       -0.01648902009106       -0.04161964841277
C          111.01696758234414       -0.01549454477175       -0.04171271787831
C          112.35912415713240       -0.01624277370317       -0.04400509271262
C          113.58483270453701       -0.01466941122612       -0.04790239947447
C          123.28131827279883       -0.03496340198858       -0.06249330459510
C          124.50698419936448       -0.03096905823935       -0.05980576714923
C          125.84906468365129       -0.03042266100308       -0.05717804319963
C          127.08075984160141       -0.02762077565648       -0.05446597169842
C          128.41818813564953       -0.02384580264573       -0.05341695836981
C          129.64983721290020       -0.01705518572302       -0.05186751368257
C          130.99190173396974       -0.01191391652260       -0.05254289914770
C          132.21753127281565       -0.00553114626509       -0.05450699589330
C          141.90737554434040        0.03555129141293       -0.07013436433576
C          143.13260252466526        0.04585724151456       -0.06948310809496
C          144.47494670517236        0.05228852464333       -0.06719995170871
C          145.70617511476965        0.05772264997871       -0.06467911286384
C          147.04396767203744        0.05977866058968       -0.06174038968554
C          148.27511583790238        0.05892211346927       -0.05844411536136
C          149.61767660132878        0.05297184849785       -0.05564333850666
C          150.84266140484795        0.04216963247544       -0.05530744541631
C           77.73057437197163       -0.09113044736768       -0.07040118628577
C           78.36242358833493       -1.26120276905309        0.39418425891721
C           77.72069429226042       -2.42636526655029        0.88700531348212
C           78.69131901053765       -3.33041267193249        1.22303665269311
C           79.95460683083901       -2.74515619663381        0.93623662250226
N           79.70474657919424       -1.49119531387255        0.44592388172835
C           81.21610515511695       -3.32162544431945        1.12841585055814
C           82.44115641523140       -2.70263468327307        0.87758928162973
C           83.72559552439265       -3.36058973838969        1.03874809521233
C           84.66593223595115       -2.45054116850796        0.71033203563905
N           82.62264496728153       -1.42514623532424        0.44091925944872
C           83.95458090321220       -1.24283391097545        0.34123914406231
C           84.61176550606702       -0.05907776375204       -0.05364819876681
C           83.97900169412854        1.13291493945827       -0.45875340017971
C           84.61998827836213        2.34238563829082       -0.83138236629018
C           83.64932337505866        3.24658630461926       -1.16684049231988
C           82.38663714349741        2.61110179828363       -1.01704782111771
C           81.12554750286910        3.17085983062361       -1.25420780146490
C           81.10840687524816        4.56665850667053       -1.76103824527091
C           80.51133251365873        5.57827209709023       -1.00942453998398
C           80.48790963463375        6.88653632403934       -1.47891684380785
C           79.86078183340312        7.98034650426773       -0.65755122483326
C           81.06562618563323        7.17942342496752       -2.71137510928485
C           81.66278379279105        6.18093871958742       -3.47399719927814
C           82.29648635083501        6.50857510714807       -4.79902088328014
C           81.68484795647650        4.87609578779096       -2.99164836766154
C           79.90061037399987        2.53212447983721       -1.05574877992872
C           78.61680280388769        3.13314067099602       -1.37109935914704
C           77.67659557458309        2.22463545374104       -1.03826637163183
C           78.38753167221118        1.06838416416946       -0.53028594169289
N           79.71944445924512        1.27608761593022       -0.56185294249195
N           82.63705299532626        1.33806759657563       -0.57791436521899
C           81.22941580002789       -4.71386543362331        1.64550042847202
C           80.66269373629099       -5.74624405373992        0.90020782791194
C           80.67421715381425       -7.05245759240698        1.37935581307629
C           80.04968490491635       -8.15806084837854        0.57172145252599
C           81.25089535551419       -7.31922366400244        2.61681987809997
C           81.81925951190574       -6.29839412663762        3.37386845276026
C           82.42160604964668       -6.59702740967454        4.72008777191365
C           81.80702018773884       -4.99786090490935        2.88244119175236
H           76.65302242038466       -2.54688369556870        0.97513750775814
H           78.54726086255111       -4.31331421554911        1.64099020367059
H           80.42029330449817       -0.82766666963132        0.16853210571623
H           83.86579992450984       -4.38346302762993        1.34860511276589
H           85.73839416331714       -2.56227883618155        0.70288875888259
H           85.68725626330964        2.49445577375236       -0.83421953739967
H           83.79272018754830        4.26706323912953       -1.48246634609087
H           80.07405992508575        5.33861942214999       -0.04640989763890
H           80.63349581694875        8.52026745875049       -0.10561065293701
H           79.34173238395617        8.69460612998757       -1.29747512757741
H           79.15171652504816        7.57000206747973        0.06138707690068
H           81.04563617066350        8.19875239522302       -3.08310443221527
H           82.21722660033460        5.66564859319834       -5.48590513476253
H           83.35640450454541        6.73242021129271       -4.65785304035792
H           81.82280835034955        7.37961758722114       -5.25203911823649
H           82.13333456266753        4.08653083141292       -3.58477612397769
H           78.47653794165359        4.11166460098812       -1.80084791733530
H           76.60461300578049        2.30125171238523       -1.12580508984177
H           81.92181037343238        0.65036766904936       -0.36641077115837
H           80.22876612026690       -5.52871168904736       -0.06972046638271
H           80.47230862671965       -9.12550372117595        0.84293889473903
H           80.20263004836923       -7.99198041703510       -0.49500662005645
H           78.97376068214427       -8.19131622909581        0.75799210845264
H           81.26151631708481       -8.33606518461140        2.99565762712799
H           83.17742618671790       -5.85624408396964        4.98118598472592
H           82.87849268742713       -7.58693923397786        4.72919535047710
H           81.64419365690158       -6.57560746376048        5.48727923929325
H           82.23665636190503       -4.19200690527527        3.46729378826608
C           96.35571340788715       -0.02153790659667       -0.06117127053595
C           96.98390037716506       -1.19111673949012        0.41087456611379
C           96.33889048409483       -2.35077427060230        0.91205579744207
C           97.30675497591719       -3.25798647810324        1.24769958430524
C           98.57156348916956       -2.68017812410402        0.95268558321834
N           98.32534730759535       -1.42690677622181        0.45842184402524
C           99.83060660491171       -3.26343018964166        1.14069082782731
C          101.05893491417734       -2.65292167781736        0.88473717553430
C          102.33951746608015       -3.31891742418951        1.04393475975808
C          103.28507947852204       -2.41508264840328        0.71329530498459
N          101.24775224217703       -1.37724974334453        0.44604499423464
C          102.58074883861700       -1.20350424162606        0.34391409715840
C          103.24415726595952       -0.02430581419722       -0.05416603987361
C          102.61584221017340        1.16851228782751       -0.46396991943746
C          103.26067099181381        2.37368938215907       -0.84332955874867
C          102.29278909868982        3.27886915275750       -1.18438430604057
C          101.02806843135005        2.64832325887058       -1.03093445828043
C           99.76906063544178        3.21157362213783       -1.27218333357142
C           99.76015966319491        4.60370815848610       -1.78971830377541
C           99.17399173532630        5.62586425477417       -1.04388357078324
C           99.16139380685024        6.93094419571931       -1.52262179011694
C           98.54767249472339        8.03634703229599       -0.70668756362939
C           99.73838612504409        7.20981244064204       -2.75869884369100
C          100.32419996190755        6.20058408214819       -3.51583627966365
C          100.95756854362574        6.51204074588601       -4.84491282120058
C          100.33589162286901        4.89906460175492       -3.02406250657615
C           98.54077724223042        2.58121770648321       -1.06896558748362
C           97.26033083754344        3.18773386905963       -1.38752009324316
C           96.31479857523651        2.28737855951538       -1.04744269469005
C           97.01905770482537        1.13050414721287       -0.53176914312275
N           98.35202703336560        1.32964653749867       -0.56589636021103
N          101.27443604326987        1.37727235246199       -0.58416111497237
C           99.83760940510700       -4.65544067918070        1.65864911280234
C           99.26248345153178       -5.68460197572316        0.91530016439846
C           99.26919831663947       -6.99099673934271        1.39389124314555
C           98.63577115830955       -8.09353820016349        0.58904620006510
C           99.84950791188548       -7.26114392019986        2.62895637919788
C          100.42606248544044       -6.24351600098420        3.38414644511435
C          101.03265139658465       -6.54661897777369        4.72745546519926
C          100.41854955701911       -4.94276437646479        2.89325979722974
H           95.27108479425881       -2.46604299329782        1.00527507696252
H           97.15986752953401       -4.23837008599733        1.67054394914209
H           99.04233782379337       -0.76788733390803        0.17410679794117
H          102.47395520001187       -4.34239854716785        1.35430363383164
H          104.35680309361543       -2.53358469083308        0.70401380760957
H          104.32841121874527        2.52238411133026       -0.84695583568670
H          102.43949848726477        4.29694403565671       -1.50616730907768
H           98.73724517287908        5.39705611599921       -0.07800007935796
H           99.32652823763269        8.56613569818556       -0.15352951978559
H           98.04155098149006        8.75648730760522       -1.35032456355366
H           97.83022615865033        7.63864645997724        0.01104862953626
H           99.72698183676145        8.22671105425896       -3.13737446137050
H          100.84590114542902        5.67398071678882       -5.53331862671205
H          102.02527316895319        6.70099227428160       -4.71169400699335
H          100.50849943886750        7.39902256440859       -5.29193023401446
H          100.77627669029501        4.10137578356801       -3.61237531250892
H           97.12583943407287        4.16422496515848       -1.82372672342654
H           95.24317983211704        2.36985511287093       -1.13436711947039
H          100.55747789817714        0.69262175918461       -0.36864896612878
H           98.82593312215771       -5.46436674038504       -0.05283533439732
H           99.07202042048041       -9.06008064238092        0.84134989199820
H           98.76351713324686       -7.91590067924743       -0.47908260487617
H           97.56462515154941       -8.13765885748023        0.79914170223723
H           99.85659767823350       -8.27819679940607        3.00730962533334
H          101.77830771290476       -5.79819135119977        4.99575699118650
H          101.50317293468810       -7.53021215116246        4.72668933267561
H          100.25515641494448       -6.54384960533865        5.49482985767175
H          100.85472320808951       -4.13932250962617        3.47658402235373
C          114.98878786620973       -0.01903011705949       -0.05136415651843
C          115.61656191591491       -1.18967131087368        0.41880265769939
C          114.97123119212741       -2.34827724451526        0.92209753093613
C          115.93866481835686       -3.25648460069620        1.25630697112714
C          117.20358379058403       -2.68073544222143        0.95771412722758
N          116.95780192367647       -1.42735530458918        0.46323788443457
C          118.46230353662033       -3.26575386112532        1.14210970988885
C          119.69079708086402       -2.65777262957972        0.88026616154444
C          120.97068797788896       -3.32663470915149        1.03321714606087
C          121.91669636212026       -2.42458201689374        0.69901288729354
N          119.88031356856528       -1.38241625382707        0.44129702079357
C          121.21329299841348       -1.21123785523074        0.33396289759429
C          121.87742527245469       -0.03264445649394       -0.06432062810352
C          121.24996364491039        1.16185447323820       -0.47025743118289
C          121.89566681372693        2.36645899554666       -0.84979914127601
C          120.92820116707217        3.27391486694298       -1.18594483959490
C          119.66294492260671        2.64528397699460       -1.02915202074926
C          118.40408955945496        3.21129247147219       -1.26478765461590
C          118.39724856366176        4.60449752204182       -1.77964778560107
C          117.82025515145686        5.62775466266355       -1.02831818874496
C          117.81256397793784        6.93418070484537       -1.50362627161203
C          117.21035950288591        8.04077658187990       -0.68076861659656
C          118.38464441877503        7.21308401750807       -2.74195160997630
C          118.96079916896619        6.20260312767327       -3.50480597463558
C          119.58913844827607        6.51357975062433       -4.83638232169324
C          118.96805866357954        4.89982955665130       -3.01628227602988
C          117.17543339139428        2.58291911343022       -1.05848173926959
C          115.89512106734918        3.19270169334089       -1.37115250384790
C          114.94904890970531        2.29286443694212       -1.03120800860867
C          115.65278303982041        1.13322998785834       -0.52085603547688
N          116.98594024083570        1.33029333219459       -0.55808066683263
N          119.90853767795595        1.37305634331362       -0.58558142238924
C          118.47067415143131       -4.65636561872898        1.66360923153887
C          117.89025729593054       -5.68770490168794        0.92744735984510
C          117.90102458058847       -6.99275143225783        1.40966388881193
C          117.26218498310470       -8.09813420846081        0.61303636297224
C          118.49097459960524       -7.25944495057222        2.64092759734078
C          119.07290314372530       -6.23960929155131        3.38898894984907
C          119.69100187244027       -6.53921026147349        4.72783202341970
C          119.06086025491399       -4.94023800148813        2.89471510184823
H          113.90349716042128       -2.46203987188486        1.01797675389736
H          115.79144327764089       -4.23632973693972        1.68029313438044
H          117.67503317444375       -0.76943006339170        0.17698765533271
H          121.10451242832562       -4.35072728780259        1.34179043967740
H          122.98810872937577       -2.54535601149899        0.68472488599838
H          122.96365232454158        2.51326267335974       -0.85685173351034
H          121.07561277734339        4.29227017327333       -1.50650359008823
H          117.38732501107818        5.39888258261906       -0.06073378263685
H          117.99405124447316        8.55461286967853       -0.11940801235076
H          116.71712115293009        8.77359686795421       -1.32002194209459
H          116.48443495374401        7.64664629655554        0.03040113125048
H          118.37721241753145        8.23106909464930       -3.11779173125214
H          119.45948405049420        5.68203032943127       -5.52954822885842
H          120.66061464258951        6.68497044562357       -4.70988600244204
H          119.15055454633388        7.41036821007251       -5.27410545472117
H          119.40154338357846        4.10133113646984       -3.60861139108368
H          115.76125401245795        4.17095264241922       -1.80361745594910
H          113.87732280608931        2.37755588304650       -1.11458964966071
H          119.19116084504088        0.68928139722182       -0.36869245664415
H          117.44689523419260       -5.47044109437628       -0.03825734166076
H          117.70960684852105       -9.06196828591428        0.85605537322271
H          117.37068362823517       -7.91753971028692       -0.45669736775517
H          116.19510527811990       -8.15060714080554        0.84115118619923
H          118.50167630844554       -8.27555518023493        3.02172377859518
H          120.43189041268418       -5.78469026975194        4.99222638211167
H          120.17019979058880       -7.51861346679750        4.72231756998946
H          118.91873704440079       -6.54458594556679        5.50043284902511
H          119.50128561015266       -4.13505287605962        3.47241796310627
C          133.62147181314950       -0.00085360097551       -0.05594248808453
C          134.25586313126365       -1.16998411127020        0.40888066250069
C          133.61669226352583       -2.33394677100403        0.90806591537401
C          134.58883688632909       -3.23795906105192        1.23978427129050
C          135.85068474427877       -2.65460885674566        0.94288959031833
N          135.59823766188660       -1.40085864725100        0.45239380339473
C          137.11278553514461       -3.23286696570921        1.12360145310426
C          138.33662494736095       -2.61639248076531        0.85871664994645
C          139.62111898923501       -3.27863238840876        1.00159101132555
C          140.56010813052896       -2.36896752117436        0.66837167435342
N          138.51611515220955       -1.33764252753182        0.42650382966851
C          139.84776937370447       -1.15734594374555        0.31501069129997
C          140.50312078222547        0.02963002873584       -0.07099987198298
C          139.86917538359916        1.22561938512444       -0.46093871501338
C          140.50852960696685        2.43811110639440       -0.82611068152782
C          139.53641817666872        3.34345700715734       -1.15428329247090
C          138.27467674279274        2.70562725104216       -1.00663937242202
C          137.01262507938631        3.26528878327310       -1.24028594703882
C          136.99799600718509        4.66249187625992       -1.74373424312570
C          136.41199503079227        5.67605071861057       -0.98628780165232
C          136.39943820988734        6.98649883539639       -1.45034272802219
C          135.78851964834311        8.08246415293382       -0.61971755353540
C          136.97557140080474        7.27928236990667       -2.68358893452686
C          137.56045588470303        6.27858238065105       -3.45257105354619
C          138.19336875692096        6.60336016723043       -4.77869427983017
C          137.57249550619298        4.97164180898135       -2.97527593345086
C          135.78867344857244        2.62566288937705       -1.04157438960503
C          134.50398176223771        3.22748561223468       -1.35134938625143
C          133.56485112452145        2.31725850382652       -1.01996865760639
C          134.27730169285891        1.15940466543752       -0.51734044044744
N          135.60872267016723        1.36751479266421       -0.55134543834258
N          138.52671744167580        1.43052365635343       -0.57565790028021
C          137.13300491058973       -4.62311256224553        1.64535700001111
C          136.55644146361649       -5.65993157353570        0.91384952106532
C          136.58091294595150       -6.96423164209103        1.39749008727647
C          135.94699512553277       -8.07648566960919        0.60650249919017
C          137.18049585038531       -7.22481025734729        2.62549816544646
C          137.75862623869676       -6.19951651006620        3.36892083904275
C          138.38782655935253       -6.49233298015511        4.70409628048051
C          137.73293413999752       -4.90091406672932        2.87318440949430
H          132.54956208001374       -2.45367116290773        1.00343848969843
H          134.44689464141427       -4.21994988526023        1.66061616615864
H          136.31244876306147       -0.73841716135189        0.16901246791806
H          139.76242403168058       -4.30389088223683        1.30286908866667
H          141.63213287963879       -2.48324851093300        0.64826834556470
H          141.57567094499774        2.59106519537044       -0.82984230643214
H          139.67839170406285        4.36602881452223       -1.46367563364957
H          135.97633210834272        5.43662428906873       -0.02249093039044
H          136.56493601659426        8.58212008328220       -0.03584813595289
H          135.31046604488574        8.82879070294372       -1.25479754568392
H          135.04826235302161        7.68028731221253        0.07193685239463
H          136.96461179558796        8.30051614265728       -3.05041797195909
H          138.04394588861368        5.78925033989532       -5.48848048968092
H          139.26868436991111        6.74768427650042       -4.65113941794911
H          137.77415318022724        7.51840250722808       -5.19709212547962
H          138.01317797514426        4.18076520565852       -3.57251292081954
H          134.36295156937138        4.20809596771903       -1.77615762813183
H          132.49259345502384        2.39404176934950       -1.10413800831833
H          137.81259496405988        0.74059077297806       -0.36771327378312
H          136.10597667575411       -5.44750738414952       -0.04963611011673
H          136.41906978733425       -9.03270270792642        0.83255380989252
H          136.02816330514861       -7.88631327495062       -0.46395204627203
H          134.88657469659768       -8.15251861167130        0.85787787448457
H          137.20199575417510       -8.24046789332282        3.00705437703675
H          139.12570335752420       -5.73252501318184        4.96171442540948
H          138.87323697797586       -7.46865950595252        4.69737917716830
H          137.62100156896750       -6.50087153213730        5.48206833485765
H          138.17067829447680       -4.09155330126130        3.44708852470883
