136
 energy: -215.315725176377 gnorm: 0.000234386100 xtb: 6.5.1 (b24c23e)
C           15.48043326729571        0.51966598590768        0.00481724525909
C           16.08094232424189        0.59659468297349       -1.24519725191094
C           15.42301822100033        0.75930170157832       -2.49601440938419
C           16.37404668212206        0.73965102362015       -3.47762650408366
C           17.64560355623779        0.58147326040491       -2.85669601885100
N           17.41705219897526        0.49446137059633       -1.51214314970090
C           18.89945275997716        0.51280190050537       -3.47496997616947
C           18.92331421465549        0.64271849611639       -4.95065500290273
C           19.44347327165335       -0.38312786845292       -5.74220913264371
C           19.44618067652054       -0.29110360352088       -7.12347101160701
C           18.92648250544988        0.84406986070752       -7.75198615964567
N           18.94635970714075        1.00831519100264       -9.13006172893326
C           18.95930083043928       -0.16731304847052       -9.99094799554230
C           18.42529414811607        1.88585962687280       -6.96227694682875
C           18.41806273966655        1.78150754030349       -5.58392879904451
C           20.11342024223597        0.33498946406569       -2.80429725959443
C           21.40775335418589        0.41168093127441       -3.45568495163538
C           22.33265066291246        0.23422433961411       -2.48924596775345
N           20.27455714911560        0.11706830334929       -1.47030007769146
C           21.60440597647668        0.03793312354029       -1.25195638083826
C           22.24424602943789       -0.19635436847729       -0.01799269833206
C           21.60461303186486       -0.37770956605612        1.22347681626900
C           22.23938463289129       -0.64944380917518        2.46342417227301
C           21.27321593352428       -0.71683743528564        3.42894800208174
C           20.01422928819670       -0.49771653645174        2.80577774359041
N           20.26560922449262       -0.30469003999283        1.47252564134248
C           18.76221584860684       -0.43008272824190        3.42865184672716
C           18.72758029471617       -0.66133244426901        4.89142400454001
C           18.24746110070812        0.32485652755405        5.75536135724973
C           18.20934033958736        0.12203704805832        7.12422168484897
C           18.65448687523413       -1.08665026388933        7.66712272130677
N           18.58452275827184       -1.36623527411444        9.02413534557885
C           18.56152810958693       -0.27161008203257        9.98500092917322
C           19.12779169507261       -2.08283250217215        6.80431935553794
C           19.16861366679804       -1.86908050707934        5.43936499622695
C           17.55764778182826       -0.15159094113723        2.77320407052270
C           16.25778821655417       -0.13520812247288        3.42603465943237
C           15.35118982568936        0.14350740784448        2.46755814154682
C           16.09373157710288        0.28067938525820        1.22765467213061
N           17.41864138856919        0.09825350887395        1.44943291448105
H           14.40086055809682        0.63191498983055        0.01391899090052
H           14.35650934303233        0.86426117624616       -2.61700994788466
H           16.21173671417954        0.81637459278133       -4.54054436751949
H           18.14205225346969        0.35523979990628       -0.81632043249352
H           19.83230132871186       -1.27691779482331       -5.26640119126683
H           19.85316218787458       -1.10750201046863       -7.70746022915211
H           18.28598789314653        1.70808747366377       -9.44732735205755
H           18.16323090017421       -0.87143911351999       -9.72293072813627
H           18.81458587711054        0.16597171301499      -11.01859561034641
H           19.92351045951709       -0.67233478812913       -9.92047230526493
H           18.03908363052177        2.77979374702646       -7.44076116630506
H           18.03484980523864        2.60107994498333       -4.98572167237600
H           21.56687730590972        0.60603497633783       -4.50405554296522
H           23.40643099053714        0.24295392167817       -2.58117271410836
H           23.30094488331689       -0.77945391653447        2.59394102890627
H           21.42001022922104       -0.88952751609268        4.48260140009182
H           19.55092287626189       -0.11141754971873        0.77857962717683
H           17.91725595931280        1.27438957277670        5.34823779882793
H           17.83133060383039        0.90935011793417        7.76478104952268
H           19.21160944160005       -2.11121738602730        9.30301828312555
H           17.61630803959688        0.26814886242446        9.91383668153896
H           19.38936937919526        0.42761182972837        9.82013592675192
H           18.64435561538194       -0.69890048695356       10.98435744934637
H           19.46140338386260       -3.02991052919111        7.21533695926247
H           19.52534399829434       -2.65565225158702        4.78328021401739
H           16.08349077806703       -0.33118230507522        4.47178312037244
H           14.28012725904773        0.23759638259339        2.55743862549497
C           33.04559687836559        0.51667974353928       -0.03095184549321
C           32.44504075413351        0.65743566249181        1.21347303759619
C           33.10294096541426        0.88355080322467        2.45440417234052
C           32.15183564647472        0.91448975997462        3.43564271957705
C           30.88025696391995        0.72533678711725        2.82348706799167
N           31.10887050779177        0.56960641426340        1.48516379107617
C           29.62634025199762        0.68885803714693        3.44436804919082
C           29.60244860473280        0.89435120238593        4.91144125547286
C           29.08188392299964       -0.08929298330796        5.75460906568445
C           29.07908565727362        0.07359253801072        7.12932102306880
C           29.59912971510025        1.23938163566722        7.69872955700163
N           29.57913899455608        1.47428219922932        9.06652788301597
C           29.56543784478249        0.34452637818624        9.98676875924750
C           30.10078658710211        2.23902815359242        6.85658322296111
C           30.10806916502822        2.06399509852557        5.48541761707851
C           28.41235808851475        0.47728077584028        2.78360684420967
C           27.11800115882022        0.58770906916778        3.43008648853280
C           26.19311292427053        0.36097065593380        2.47399403674203
N           28.25123407902780        0.19148133113518        1.46248079393083
C           26.92137837561145        0.10169248162526        1.24836325362824
C           26.28154294676651       -0.19522708924633        0.02795209838310
C           26.92117073735295       -0.43972204874862       -1.20264200181845
C           26.28636352918738       -0.77407003816133       -2.42717293532087
C           27.25250584963945       -0.89048331939157       -3.38804160920898
C           28.51153256572854       -0.64022301481139       -2.77679335790300
N           28.26018927306098       -0.37970549717713       -1.45506183757207
C           29.76356017407396       -0.60455633366546       -3.40227460836543
C           29.79813585211493       -0.90947954975452       -4.85148524482837
C           30.27845009586839        0.03173212373203       -5.76411420105764
C           30.31642559339271       -0.23991264863773       -7.12099683550171
C           29.87093948896134       -1.47434360211169       -7.60218526296750
N           29.94068285200776       -1.82203762948662       -8.94338118915057
C           29.96374606374819       -0.77724750796816       -9.95821398952785
C           29.39750168949490       -2.42561891910996       -6.69017889843412
C           29.35681961635456       -2.14324951156138       -5.33774558224776
C           30.96821398669205       -0.29360887272961       -2.76174598502135
C           32.26808527730961       -0.31085421029196       -3.41453147100577
C           33.17479362602519        0.01566599877897       -2.47136139917651
C           32.43226203005747        0.21605764456009       -1.24008766243688
N           31.10729966387969        0.02296965672280       -1.45234341078922
H           34.12522582527959        0.62782110787794       -0.04566026004607
H           34.16948475797685        0.99411361326393        2.56997824874101
H           32.31409824267944        1.04536934103758        4.49326491630179
H           30.38386113263809        0.39532916959866        0.79729414993422
H           28.69278581659688       -1.00622288298970        5.32531888888486
H           28.67178476201295       -0.71158637045936        7.75444871971726
H           30.23977295043596        2.18915080762705        9.34750846244475
H           30.36125408941853       -0.37281571709242        9.75557224526085
H           29.71004069210034        0.73019811720504       10.99594062841686
H           28.60101292248373       -0.16302082422334        9.94210760731917
H           30.48728602583238        3.15622877211221        7.28854504195213
H           30.49166140926800        2.85159084511854        4.84592212109556
H           26.95886187882002        0.83559581221615        4.46710523124695
H           25.11932943426257        0.37459379856278        2.56529214747514
H           25.22478444501112       -0.91037646858999       -2.55092422190289
H           27.10567327370588       -1.11640289149491       -4.43157315126497
H           28.97491003825798       -0.15153814731536       -0.77183089155050
H           30.60891968385676        1.00051509172614       -5.40543845360497
H           30.69457792072170        0.51398315081643       -7.80048989433216
H           29.31335805837312       -2.57996874613366       -9.18425528502375
H           30.90906458192286       -0.23475171144512       -9.91445645587638
H           29.13604165952791       -0.07046004839680       -9.82871357796031
H           29.88072639193030       -1.25435954051850      -10.93475014278419
H           29.06365788934075       -3.39215929595169       -7.05285924304571
H           28.99996571059352       -2.89563301440491       -4.64278307875644
H           32.44230793117170       -0.55965826942507       -4.44899674607346
H           34.24589602875625        0.10464171099604       -2.56585579667062
C           23.65420100454081       -0.23394142315428       -0.00593305333032
C           24.87158664268471       -0.23335835288449        0.01784064185294
