142
 energy: -225.467412328431 gnorm: 0.000445990975 xtb: 6.5.1 (b24c23e)
Fe          14.21022170607708        0.06622556587998       -0.08532950468313
C           10.87112606824054        0.28958288466279       -0.66101271781936
C           11.51630845056876        1.40489305832052       -0.16799677577150
C           10.84140045326365        2.61987488665994        0.17484055186881
C           11.78470959414833        3.46570730984843        0.65166403317087
C           13.03965907911462        2.77550278602102        0.57200184425738
N           12.85852111098566        1.50827925350369        0.08620255306360
C           14.26076926915007        3.34816805296980        0.91059525447862
C           15.46789364317562        2.67208170177122        0.80262181551038
C           16.74286354261286        3.27929253731612        1.04484072908279
C           17.67970682986807        2.33117868436484        0.80445225448430
N           15.62934000111414        1.36589589122250        0.40530952390770
C           16.97517980675999        1.14784965781055        0.42189043097074
C           17.61700789546022       -0.06104472176935        0.13077131006133
C           16.92336351303225       -1.23687461818316       -0.17655668976743
C           17.57198308957031       -2.49522670959438       -0.37332314025753
C           16.59523272484980       -3.40003838724411       -0.62224762441783
C           15.35303241064018       -2.68697894503071       -0.58900474756422
C           14.12946653424466       -3.26337338214076       -0.89750319446279
C           14.09215480315268       -4.71509448338313       -1.20315732013931
C           13.77679234634939       -5.15485846561543       -2.48665327986636
C           13.74864413724053       -6.51511725873999       -2.77943690011132
C           13.39620079514002       -6.98036128145927       -4.16644852228304
C           14.03021982458171       -7.43391587227487       -1.77433368370776
C           14.34500369397579       -7.00887388086869       -0.48587710429736
C           14.66092280831590       -8.01842869332107        0.58435966133945
C           14.37949408153690       -5.64770398896207       -0.20712616001385
C           12.94654104433284       -2.53692024935599       -0.96955859221504
C           11.68120276637227       -3.10531710092588       -1.33446182550863
C           10.77624266209906       -2.09905372307722       -1.30402648949892
C           11.48399880337449       -0.92405286952919       -0.89380915914366
N           12.81228144433989       -1.20061797452370       -0.70329278002711
N           15.57235825263144       -1.35808769102098       -0.31272043633850
C           14.28225162032860        4.75985656200280        1.36437117147638
C           13.86190555848954        5.77643645811758        0.50763652143505
C           13.88785493895332        7.10379971549412        0.92083841373465
C           13.45671785448719        8.19960760372808       -0.01609955653298
C           14.33774038781080        7.41017875176407        2.20182425066405
C           14.76131234348058        6.40670299735679        3.06804003557530
C           15.22730902426488        6.74851700976894        4.45746050458732
C           14.73238252923008        5.08247434792355        2.64351515572619
H            9.80390037335971        0.35994226695482       -0.83904949112092
H            9.77974702863731        2.77964707589491        0.07254529460249
H           11.65418129965830        4.46681112251415        1.02926462846155
H           16.89239378934034        4.30321253745557        1.34598360386959
H           18.75241494223726        2.40957130153142        0.87793985347477
H           18.63749224360768       -2.65067158628253       -0.31948188405451
H           16.69638180211576       -4.45331240559341       -0.82715295469797
H           13.57029896834348       -4.42785312398272       -3.26438751274959
H           13.78778958681475       -7.98019068034332       -4.35370354549279
H           12.31051295627250       -7.01128380502143       -4.28301912966929
H           13.79675727873280       -6.29765735015001       -4.91637218607284
H           14.00650759314959       -8.49602402444344       -1.99577988589485
H           14.63951531920563       -7.55957092168912        1.57265108211087
H           13.94350973445529       -8.83968736958555        0.56151057103486
H           15.65661269234716       -8.43626557558082        0.42061355684164
H           14.61633046561240       -5.30199064942630        0.79304181833807
H           11.51878073345585       -4.14314226638188       -1.57615316587701
H            9.71953578010548       -2.13360199984418       -1.51698373250717
H           13.52987049021524        5.52604860232721       -0.49394138960984
H           12.98200910206133        9.01380470385154        0.53207165732096
H           12.75776322972744        7.82079574183857       -0.76192832150083
H           14.32626006954872        8.60458871893109       -0.53880556842952
H           14.35995985358733        8.44479686402756        2.52848331308778
H           14.37492132107688        6.76966777755802        5.14034725052797
H           15.70136015541567        7.73012074916526        4.47689545030935
H           15.93682331896645        6.00595719108699        4.82291246552219
H           15.04840884415154        4.29013066503106        3.31315371783917
Fe          30.18926675557666        0.06702823522556       -0.09100532415860
C           33.52898216706400        0.55550367436894       -0.46381765117356
C           32.88424865588699       -0.22980442000255       -1.39701788818735
C           33.55968365691935       -0.90001890209900       -2.46653588990722
C           32.61656983868799       -1.59454443199900       -3.14536744404706
C           31.36119399369887       -1.32343331810317       -2.50648607011469
N           31.54194743456215       -0.50213218830186       -1.42602254855525
C           30.13986784068145       -1.80598542683917       -2.96380332816502
C           28.93224738071233       -1.51026284249800       -2.34737100856273
C           27.65732227101481       -1.90891583085094       -2.86558288847111
C           26.72006131836567       -1.41159350089076       -2.02378422092145
N           28.77040553098265       -0.76416036943831       -1.20405011278268
C           27.42429486800221       -0.71633910546261       -0.99242452257323
C           26.78200515422636       -0.09930868263437        0.08685932576352
C           27.47521909658529        0.52250287603190        1.13136120438818
C           26.82601487831232        1.06395621015125        2.28385154650388
C           27.80260383305284        1.55333147856935        3.08477009753630
C           29.04539106567968        1.31949058544370        2.41136421761403
C           30.26940986816109        1.77272930086092        2.88143983526937
C           30.30635561434029        2.46887736262854        4.19145576081126
C           30.62914941152243        3.82221503122934        4.25932079984483
C           30.65797147482112        4.48011602732367        5.48535723198607
C           31.02008493606201        5.93926419843003        5.54922880393903
C           30.36823560895733        3.77068952686244        6.64580766998445
C           30.04507460793652        2.41689234763548        6.59340564584737
C           29.71965001181064        1.67055025013704        7.85881221396806
C           30.01124041912672        1.77196876047746        5.36273348038082
C           31.45305223378976        1.63780942284244        2.16508269064637
C           32.71870289970367        2.14469019196931        2.61064840553357
C           33.62358811195956        1.83670076658976        1.65211837959672
C           32.91571571898446        1.11722797299682        0.63669924744217
N           31.58731979213891        1.01148067732048        0.95497471569159
N           28.82645349079713        0.68435460533304        1.21178989334348
C           30.11893967161634       -2.63573225164218       -4.19281340194151
C           30.54050567508688       -2.09663834481198       -5.40761147460496
C           30.51534253206968       -2.86364867038188       -6.56706909787580
C           30.94731333927695       -2.26944713707902       -7.88040140103256
C           30.06547961870080       -4.17927347862497       -6.50426143759227
C           29.64084888244990       -4.73114486188796       -5.29934308498174
C           29.17529993876676       -6.16091600149248       -5.24027321218067
C           29.66848605831203       -3.95395610029574       -4.14612747378216
H           34.59623738134769        0.70687954415216       -0.58067417135733
H           34.62153327343355       -0.84729835812212       -2.64764778260760
H           32.74735520296078       -2.23800732708696       -4.00017142871590
H           27.50830258873007       -2.48299363662319       -3.76542437164527
H           25.64722764875193       -1.50124400556326       -2.08073458937114
H           25.76025105082325        1.05805582921105        2.44655267178886
H           27.70096817229497        2.04458333690841        4.03868115151243
H           30.84079305753188        4.36701356115082        3.34590997333026
H           30.63049621678408        6.39845069867060        6.45774312371212
H           32.10656664721917        6.05235462524947        5.54808355213433
H           30.62437426181302        6.47381194424602        4.68518808170856
H           30.39217145914076        4.27759120248734        7.60504821979044
H           29.73441508801033        0.59369637956355        7.69189115712224
H           30.43571057425016        1.91533438931096        8.64426405376921
H           28.72451036271407        1.95036750341518        8.21114423210417
H           29.76892724880680        0.71649376235864        5.30696525266828
H           32.88148288750762        2.66376893156376        3.54119981283854
H           34.68038556080173        2.05046513293267        1.62646768783781
H           30.87295953059855       -1.06509303572554       -5.44613661188337
H           31.42231057817684       -3.02290026144418       -8.50923844167223
H           31.64622728654304       -1.44761624008484       -7.72414971101491
H           30.07808588417918       -1.88029796286831       -8.41551801019308
H           30.04413877353850       -4.78164114498289       -7.40666491908745
H           30.02775186544870       -6.82216394087788       -5.06870654860441
H           28.70269518140294       -6.45389975640656       -6.17806261435733
H           28.46473349680970       -6.30480146602495       -4.42617927748085
H           29.35127651418341       -4.37579483655969       -3.19875205269832
C           22.81430305378532       -0.14070776926903        0.18570789879662
C           21.58485713311592       -0.13719067544484        0.19318456083776
C           20.24258956777739       -0.12160008996027        0.18760546684060
C           19.01788977580338       -0.10021142021823        0.17238706111624
C           24.15649438161781       -0.13769634571745        0.16452596927550
C           25.38107621982902       -0.12781018402809        0.13561061333894
