198
 energy: -389.143237417390 gnorm: 0.000425281551 xtb: 6.5.1 (b24c23e)
C           32.10463342280057        0.03237985876829       -0.07940734864217
C           32.71212601779615       -1.19240671428541       -0.32194308380666
C           32.05842516461026       -2.43276003322961       -0.56942748962075
C           33.01912627688752       -3.38645642679688       -0.75100931966386
C           34.29203348896452       -2.75752143023066       -0.62923333793052
N           34.05547755339580       -1.43867799349682       -0.36544331854516
C           35.55421378218578       -3.35364896504397       -0.71801648662653
C           35.58480408515529       -4.80433336236128       -1.02463752834581
C           35.06036453738820       -5.27858789590190       -2.22970573388643
C           35.09238957289870       -6.63100205649603       -2.52704721395173
C           35.64775521178797       -7.50167149872988       -1.60356884433931
S           35.69765383682360       -9.21365983248387       -1.97731842927306
O           35.64645187919395       -9.42795093429769       -3.39354201532930
O           34.25885313806730       -9.63165998074354       -1.34945029095389
O           36.72372410734416       -9.87060725493996       -1.22263933981943
C           36.17548515504931       -7.06194214323350       -0.40041322966557
C           36.14259215866267       -5.70682018435088       -0.11561304828329
C           36.77225029847046       -2.68845778843762       -0.55027455316525
C           38.07114160871810       -3.32271461604323       -0.69589044682776
C           38.99175820974241       -2.35956674488746       -0.48753159114741
N           36.92523057364103       -1.36678556261160       -0.27266080729602
C           38.25514345235861       -1.13704968854559       -0.22661683070187
C           38.88762737817043        0.09632019745172        0.00564026687220
C           38.25865087819651        1.33041628128035        0.23521882851359
C           38.90699300637681        2.56382400292780        0.51449147973336
C           37.94284135798193        3.51128060589775        0.71659270658043
C           36.67392319923187        2.88740061801440        0.55424837583890
N           36.91657264170545        1.57120956696574        0.26740028008896
C           35.41138554697672        3.47322065861028        0.69435404926183
C           35.37962686483415        4.91772395151169        1.02649428906527
C           35.93255728226538        5.85816860482683        0.15364903640647
C           35.90663200212180        7.20758323888743        0.46534017858222
C           35.32858260326530        7.60310173371064        1.66065320684498
S           35.29298741635599        9.30949307156804        2.06095581846760
O           35.37944451515579       10.10988301359961        0.87566531298845
O           36.71461736063087        9.39577935983150        2.84233855557169
O           34.25159511996576        9.59341255015475        3.00423622947363
C           34.76880542724980        6.69504939878079        2.54473709538876
C           34.79511200361490        5.34889352200402        2.22028871890360
C           34.19348275599176        2.80099812342759        0.54728780499935
C           32.88967039442978        3.44203884748172        0.63072620902122
C           31.97541221415130        2.47717701232524        0.40823367500066
C           32.71910146088226        1.24942894155016        0.18368260784060
N           34.05163251772685        1.48387187910296        0.26912779766636
H           31.01953276314945        0.02851913684189       -0.09838871268850
H           30.98868633257325       -2.56523866755652       -0.59569925955215
H           32.86646065619319       -4.43611744423687       -0.94289468322323
H           34.78146186316039       -0.74588634910767       -0.21639193104696
H           34.64334957842409       -4.57905612180442       -2.94481828513298
H           34.70046195768673       -7.00777431563308       -3.46342720089810
H           34.10423527506277      -10.57657095080357       -1.46928292508804
H           36.60664661373132       -7.77001795680765        0.29605251227794
H           36.54042587643733       -5.34294819272392        0.82444969549509
H           38.23513176134946       -4.35979935498030       -0.93953944863279
H           40.06666097454130       -2.44008381585838       -0.51265601398085
H           39.97587498436232        2.69587062496383        0.56337288373930
H           38.09395209978075        4.54861942286418        0.96689377464436
H           36.19200033961079        0.87656202026455        0.11847616873215
H           36.36795794089449        5.52945772372826       -0.78282118651007
H           36.32220916094116        7.94590301458569       -0.20885472952490
H           36.83270006356295       10.27347026126906        3.22555639477760
H           34.31949406438456        7.03979954347873        3.46758576958922
H           34.37327040527549        4.62072551672679        2.90313219649666
H           32.72302967943338        4.49051126997776        0.81820317714826
H           30.90009477225563        2.55786705603155        0.38523947235405
C           60.59579931887659        0.06107521723952       -0.04179333875626
C           60.00099453604121        1.26852458793107        0.29921773367703
C           60.66635763499936        2.47172053645926        0.66885350414427
C           59.71520308984037        3.41920119390388        0.92008565183888
C           58.43708272212250        2.82968403583943        0.69715817308201
N           58.66064741424128        1.53145217003182        0.33692124232991
C           57.17971109957345        3.42913822790872        0.82426694917475
C           57.15520709733637        4.85603899909585        1.22534792174001
C           57.76581113585664        5.83131866485972        0.43308253078814
C           57.74287644922396        7.16293271917244        0.81466423501089
C           57.10846222927539        7.50532353077203        1.99765949002107
S           57.07212839952108        9.18824822488664        2.48693172402706
O           57.26619382545303       10.05300610219977        1.36058530369043
O           58.43230750550492        9.20235660186879        3.37542266677500
O           55.96382822598734        9.43994136417086        3.36007231214701
C           56.49070896051752        6.56183063449714        2.80260816899385
C           56.51601609412302        5.23443164922385        2.40932977061682
C           55.95667869862024        2.78504689317693        0.61220465290354
C           54.66883913769541        3.45583030179519        0.65772828093924
C           53.73768127546592        2.51122504730074        0.41334351608498
N           55.78850264725677        1.46792640411884        0.32372786126727
C           54.45723207516836        1.26700277358660        0.21657801809034
C           53.81028816470322        0.03814678889303       -0.00010285045321
C           54.42832175750499       -1.20343341608163       -0.22128466320351
C           53.77126058436987       -2.44704620209615       -0.42332501022146
C           54.72680833318477       -3.39580430298737       -0.65894662682745
C           55.99814092138378       -2.75772057006658       -0.61558985526018
N           55.76701422745986       -1.43875834857195       -0.33308273746201
C           57.25319325983346       -3.34599360471265       -0.80505755028025
C           57.26690833080819       -4.78566874420450       -1.15837974754915
C           56.65507177652260       -5.22450957264461       -2.33556134507600
C           56.67099813468303       -6.56611087349780       -2.67902399181055
C           57.29738256162669       -7.46257269007515       -1.82849551351058
S           57.32738169122244       -9.16085179050470       -2.26262832915122
O           57.16504150300781       -9.32460694145730       -3.67694929466516
O           55.94858458166655       -9.61379598492504       -1.53341282644169
O           58.41397764329555       -9.83615051291079       -1.61608763931237
C           57.91181509362912       -7.05842310076776       -0.65433801446035
C           57.89572389131127       -5.71331611428579       -0.32402879335432
C           58.47734352558678       -2.67812881210581       -0.69651753453672
C           59.77196868210244       -3.29208972717812       -0.95094893673814
C           60.69656067985046       -2.33543317190198       -0.73566393167511
C           59.96781215120308       -1.13559908569339       -0.36110972548194
N           58.63380590767657       -1.37636494025176       -0.35942270875757
H           61.68100324535700        0.06036337967547       -0.05348953879272
H           61.73673600684772        2.58184263923064        0.73778518723585
H           59.87826093993952        4.43593819725416        1.23868622868597
H           57.92806955313664        0.86031210005522        0.13178526210767
H           58.24352896769373        5.54552929425588       -0.49679332221963
H           58.20315351809941        7.92839895938191        0.20262122658380
H           58.59663808595720       10.08872411952097        3.71959203416062
H           55.99812390092043        6.86543620728560        3.71775837585210
H           56.04881681623363        4.47855831767462        3.02971000971141
H           54.52059011167113        4.50873465251527        0.83470366573925
H           52.66623082382298        2.62054501531386        0.36212323080082
H           52.70286303221942       -2.58750897263884       -0.38898927655963
H           54.56935885159040       -4.44671280520304       -0.83907302252934
H           56.49592798088153       -0.74045467714287       -0.22950535147917
H           56.18211608660322       -4.50494932976074       -2.99374471491117
H           56.21199558902560       -6.91488923555395       -3.59554472749297
H           55.83131732609997      -10.56912025368837       -1.60208955759839
H           58.39624777468553       -7.78589802226568       -0.01520629359006
H           58.36180444208267       -5.37747283450630        0.59486744432963
H           59.92589401856274       -4.31240299716806       -1.26314708185082
H           61.76968634525821       -2.40167822745801       -0.82148811399885
C           40.30315658473499        0.10905609053111        0.01137075735736
C           41.51796353343588        0.11217667888146        0.01504921863310
C           51.18059294202183        0.04444352623578        0.01312645485606
C           52.39554877174491        0.03772241703691        0.00585172904087
C           42.93309353955426        0.10893647392782        0.01870908527345
C           43.55676426955100        0.93173591137816       -0.93292708410661
C           42.90549888002818        1.71771193727332       -1.92078830681364
C           43.86783805143603        2.34231253026135       -2.66424965658036
C           45.13731729786762        1.96727645146133       -2.14256631026991
N           44.89816101910430        1.11094019313589       -1.10216885754065
C           46.39875810163920        2.36211835222291       -2.60219676028347
C           46.42299676980736        3.28544003406466       -3.76251616035647
C           47.03120854786813        2.88441223426612       -4.95533525090439
C           47.04565711668951        3.72505382870549       -6.05559337904548
C           46.44944020049794        4.97108991868586       -5.94794205236026
S           46.46356427050726        6.03980600691281       -7.33801834266321
O           46.30320284770693        7.40205704396362       -6.92592585288540
O           45.08174277025263        5.54241339533925       -8.03301785864539
O           47.53912734705095        5.71331918561968       -8.22806409012962
C           45.84978566144536        5.40209751706581       -4.77590053149154
C           45.83694440510348        4.55100603372334       -3.68270780367330
C           47.62156275674563        1.94363127357681       -2.07077903129639
C           48.91115732960896        2.44191661449441       -2.51730603937359
C           49.84255299809453        1.80765219879350       -1.77642828399833
N           47.78905904331452        1.04227306812357       -1.06768928692937
C           49.12140515866714        0.92597289501946       -0.87830668181021
C           49.76622999144477        0.05645153389329        0.01765809989456
C           49.14100531727482       -0.81165926042458        0.92789353929389
C           49.78976115063270       -1.69272342977892        1.83346435043311
C           48.82673567064793       -2.31702757319309        2.57677974867801
C           47.55989436672348       -1.83093845032325        2.14960902876217
N           47.79996611315187       -0.93498157325940        1.14385114281736
C           46.30022041324631       -2.20297937724941        2.63327097036488
C           46.28385569560906       -3.14928038326578        3.77557782246925
C           45.68238172303503       -4.40395469409364        3.65062259628078
C           45.66077412869041       -5.28314013432703        4.72097501812709
C           46.24134912832281       -4.89086333309632        5.91611874420627
S           46.22224942436242       -5.99932361453037        7.27461727914251
O           46.06935610357796       -7.34917773784890        6.82032475706249
O           44.82692808333415       -5.52040323962709        7.95341525439276
O           47.28083493255673       -5.70158847849097        8.19490061929320
C           46.84921219716504       -3.65538238305356        6.06949500913156
C           46.87005047564271       -2.78655717575350        4.99112764752481
C           45.07592581922101       -1.74789338105758        2.13823931884448
C           43.78513875863132       -2.12937559449398        2.68529338135768
C           42.85416234634463       -1.49279925375042        1.94604971018176
C           43.57704256808674       -0.71155777178699        0.96034271255562
N           44.90882809313158       -0.88094174794142        1.10452908394917
H           41.83658597883962        1.78110281991947       -2.04580197683094
H           43.71402632453174        2.99720393852404       -3.50621080963935
H           45.62240640542843        0.66138632583703       -0.55203107090578
H           47.48087042560547        1.90060486368658       -5.02176372941090
H           47.51274234190009        3.42314332653769       -6.98461669078221
H           45.02106622765803        5.88498983351138       -8.93311310395344
H           45.40631969139258        6.38842341414760       -4.72242803562005
H           45.38449880209993        4.87532161800424       -2.75283365587258
H           49.06020529100104        3.18801009311618       -3.28084382004899
H           50.91524298487389        1.91033541194269       -1.81226444621645
H           50.85758779356922       -1.82549686768909        1.89962177686043
H           48.97690793238222       -3.05598576971208        3.34682670807666
H           47.07757264477308       -0.43296413639891        0.63844581715680
H           45.24388612153580       -4.69581434937242        2.70360017225912
H           45.20583612056605       -6.26166382555861        4.63235909621549
H           44.73117682163214       -5.91017332795225        8.83095229232589
H           47.29880353290202       -3.38334358630653        7.01622262333929
H           47.32966330193202       -1.81042057669920        5.09413888047654
H           43.63351641395969       -2.78527362243149        3.52707786505650
H           41.78088013752333       -1.52244638891704        2.04455432176381
