195
 energy: -339.805815603616 gnorm: 0.000653741961 xtb: 6.5.1 (b24c23e)
Ni          26.55869329628356        0.01338918499063        0.03005525997799
C           23.16903172241168        0.11005100971848        0.12322750164131
C           23.82919355503149        1.13766757839179       -0.51804124576548
C           23.16268289513363        2.21712430668578       -1.17892913021781
C           24.12748878737611        3.06695562021554       -1.60358586401469
C           25.38219943283687        2.51308146688518       -1.18720494569388
N           25.19074001014625        1.30886416373949       -0.55717539649864
C           26.60561394540573        3.15102226557021       -1.35603588169630
C           26.62724368083061        4.50701710672837       -1.95141849554854
C           27.32415485574428        4.75420758815320       -3.13659601380936
C           27.34422740219388        6.01913787805419       -3.69673055584163
C           26.67711460905849        7.07459138549676       -3.06948542018415
N           26.66283259450265        8.33243144826329       -3.64639450180913
C           25.97511216691420        6.83462631503064       -1.88535854278305
C           25.95111462906388        5.56434938066946       -1.33776695912635
C           27.80837025709742        2.56746004748772       -0.97882548718075
C           29.07572027822838        3.22538643581933       -1.07498538402708
C           30.01539441152737        2.32331257869833       -0.70160722600289
N           27.96876537508255        1.28338520310708       -0.50737410473539
C           29.31991931011705        1.12137833843860       -0.36987081678644
C           29.96934280854648       -0.06918496514491       -0.02930143453573
C           29.27604695194052       -1.23045565230149        0.32517112693248
C           29.92355035219583       -2.46806679473068        0.62048351237386
C           28.95378340652747       -3.33030163465874        1.01102740569164
C           27.71723061796855       -2.61102840800922        0.96623839725568
N           27.92383262116907       -1.32991355660933        0.50436818715348
C           26.50237798135533       -3.13674956962142        1.38699728863684
C           26.47553845098734       -4.49915829575673        1.96745019799781
C           27.20658616282047       -4.79799400200551        3.11969957677249
C           27.17709887172710       -6.06758038172631        3.66875574427270
C           26.42380705949256       -7.07647013877246        3.06281304574177
N           26.36023117353662       -8.33680457595702        3.63078186534963
C           25.68749798563615       -6.78461028054602        1.91160353217371
C           25.71380860774804       -5.50955332726478        1.37534998806696
C           25.30918500105808       -2.43057063283992        1.28601664165836
C           24.04951853225557       -2.91724213004906        1.76655952150793
C           23.11406062944316       -2.00575373786861        1.40958926148447
C           23.80402682464276       -0.95822820966589        0.72190550981690
N           25.15328067040104       -1.20885212614424        0.68067196179059
H           22.08612177641533        0.14198490340593        0.15529567147899
H           22.09339345793654        2.29550248102612       -1.29560496127967
H           24.01254635160894        3.98654551893208       -2.15403619108273
H           27.83822969616066        3.93852316382324       -3.63318026737564
H           27.87893862603441        6.19634255226785       -4.62349629838530
H           27.42460145860052        8.52006000672673       -4.27846598523704
H           26.46408430755382        9.08967812823431       -3.01225586349626
H           25.45291637340909        7.64919842324511       -1.39543952807075
H           25.41886593239031        5.38981792523549       -0.40905273316970
H           29.21816546798886        4.24856904531461       -1.38218482707372
H           31.08523336462707        2.44617844205247       -0.65064594107740
H           30.98424114036472       -2.64032385059434        0.53325796616987
H           29.05651893680130       -4.36356922026079        1.29984975390723
H           27.78683887236605       -4.01809434746257        3.60060004694270
H           27.73889496606899       -6.28440084096242        4.57074206189673
H           27.13548943988863       -8.57464936174240        4.22862807968866
H           26.09031482308431       -9.07510695755671        3.00064361550119
H           25.09825266718899       -7.56271431775265        1.43872979617854
H           25.15278984560992       -5.29486205227293        0.47233535609559
H           23.91206137405790       -3.83691770290755        2.31167323172117
H           22.05045953332003       -2.02336774109247        1.58728753532309
Ni          63.69233084841262       -0.01054171669091        0.03175676421951
C           67.08219900241248        0.01639409523980        0.16978828033536
C           66.42180510735113       -1.08539664032430        0.67264042089679
C           67.08833533850400       -2.23065195874103        1.21148813609863
C           66.12342039507924       -3.05335564567583        1.68625025369407
C           64.86847640207780       -2.40231187198010        1.44995885768073
N           65.06011994740479       -1.21338982017688        0.79167048663797
C           63.64428186917854       -2.89755858405624        1.88393910626998
C           63.62313736575957       -4.14093740371167        2.68837870583522
C           62.93120571386204       -5.26876956966915        2.24041524862956
C           62.91252951840713       -6.43266034069439        2.98823084633593
C           63.57643154507310       -6.48791649874230        4.21651205400288
N           63.59245407686937       -7.66188755864300        4.94900586221065
C           64.27368666456147       -5.36502116768184        4.66985883517575
C           64.29603065708085       -4.20855873195897        3.91084951992660
C           62.44086027354867       -2.26566143648035        1.59732996637691
C           61.17205654477653       -2.71435647876048        2.08433792429424
C           60.23262465529677       -1.90926266713128        1.53170565729100
N           62.28127981534839       -1.16447443070458        0.78571385394525
C           60.92954196617453       -0.96565548062664        0.71796386047045
C           60.28160546359942       -0.02299676953040       -0.08611068837274
C           60.97620675765560        0.91925372615465       -0.85048976677810
C           60.33006197042314        1.85159783607083       -1.71744811828357
C           61.30001752454744        2.65764101628192       -2.21318564094267
C           62.53532765952809        2.22273705975119       -1.63579175167607
N           62.32791590028381        1.12649673672853       -0.82820347810497
C           63.74990199693344        2.86596759314072       -1.83645216521829
C           63.77715358986710        4.10412367383626       -2.64896838345491
C           63.04597570649072        5.22896952114249       -2.25989507441502
C           63.07459807158004        6.38876448017207       -3.01375175859097
C           63.82697683514862        6.44231163020053       -4.18998211186237
N           63.88892065991380        7.61241139083258       -4.92629989106830
C           64.56392429964281        5.32234205108412       -4.58390318874949
C           64.53857231328092        4.17024579483164       -3.81837129960164
C           64.94248370019444        2.39121330028940       -1.30294167069250
C           66.20200324813302        3.06148187281921       -1.44051610970030
C           67.13736676040230        2.25905301106080       -0.87975854006634
C           66.44734581377135        1.10580195734452       -0.38963292271996
N           65.09823255338850        1.20994855518855       -0.62194845903698
H           68.16507133281968        0.02569134689186        0.21494010225484
H           68.15774005545676       -2.37031622295279        1.21455916455265
H           66.23855201527672       -4.01870364997764        2.15174181983839
H           62.42011805676998       -5.23629605239137        1.28440969865169
H           62.38159409722772       -7.30561226838157        2.62451236597610
H           62.83347174710681       -8.29554234148290        4.75560005884253
H           63.78869441164220       -7.54911261953057        5.93073730654847
H           64.79360792396312       -5.40276210625873        5.62091043365973
H           64.82459979308267       -3.33551925405731        4.27785426311906
H           61.02839086445808       -3.53576124570461        2.76712760805440
H           59.16203898684793       -1.93923918439291        1.65501330970287
H           59.27008935297325        1.87266442404410       -1.91331823213724
H           61.19832489102325        3.47209745565022       -2.91170168947748
H           62.46607362254065        5.19769141282849       -1.34395513997337
H           62.51260452563255        7.25984940737418       -2.69503908332365
H           63.11297826518184        8.24115818744627       -4.79357827785410
H           64.15806714455346        7.49550807381650       -5.89011451788515
H           65.15269999015300        5.35917762675304       -5.49398268112158
H           65.09997377062959        3.29953569706963       -4.13924253782721
H           66.33930095105389        4.02527279256298       -1.90323634384473
H           68.20087677554075        2.41693974132776       -0.79517692693778
C           31.37318207406861       -0.09760113763505       -0.04644121535773
C           32.59749506826130       -0.11056841408160       -0.06249918516827
C           33.94037913773889       -0.12096490915246       -0.07335739400210
C           35.17103739638659       -0.11966072930522       -0.08328622005678
C           36.50916777258390       -0.11343457130678       -0.08903227661664
C           37.73986361563684       -0.10269587502195       -0.08994908027120
C           39.08259362772305       -0.09050879342198       -0.08364423512262
C           40.30707125540750       -0.07503369102098       -0.07070220554821
C           49.94341739200649       -0.03715445062827       -0.08288801967672
C           51.16767021026030       -0.03787118870111       -0.11195676078914
C           52.51051738791726       -0.03524994174835       -0.13632758770571
C           53.74106650427562       -0.03164951473870       -0.15381479044859
C           55.07950079399490       -0.03283297642877       -0.16014065899744
C           56.31012763207244       -0.02892822641404       -0.15671148706754
C           57.65331413040096       -0.02541736397578       -0.14402038904712
C           58.87756116082248       -0.02258583652185       -0.12485201733844
Ni          45.12511453019913       -0.03371117423754        0.00202819209541
C           41.71057092586310       -0.06144333658212       -0.05137881063505
C           42.38125930391993        1.06129505113955       -0.54673386863596
C           41.70512883186313        2.20734218294533       -1.06395451754277
C           42.65425083147052        3.14607717923692       -1.29667827878395
C           43.91036525739530        2.56402073364045       -0.93520367830347
N           43.73171073373693        1.27103062168866       -0.49583429619614
C           45.11179692670246        3.26086998553661       -0.92711907015087
C           45.10891837519225        4.69277484048677       -1.31402142110574
C           44.77741187688869        5.07931621959850       -2.61401631584936
C           44.78479090737942        6.41410816427527       -2.97924787461025
C           45.12381841338080        7.39522089096771       -2.04403879231179
N           45.08722255674571        8.73422888272759       -2.39267184150446
C           45.44326661428531        7.01611478539786       -0.73775364077591
C           45.44224564576425        5.67857808371411       -0.38304441255645
C           46.32093462382571        2.67052436181812       -0.58232437225823
C           47.57669556566060        3.35562970293018       -0.61729193152154
C           48.53641038046187        2.42832921624228       -0.38200916399506
N           46.51030849105086        1.33546980641541       -0.30229461457711
C           47.86552514381217        1.18078576875469       -0.20556830903956
C           48.53997768212115       -0.03390440764438       -0.04533439813707
C           47.86914427565316       -1.24328837992927        0.16226070832456
C           48.53962873072057       -2.49419147424730        0.31282969032478
C           47.58841066075285       -3.41021600577950        0.61904936858977
C           46.34041404351844       -2.71231310189637        0.66150254850465
N           46.52016274872982       -1.38688856381477        0.33602117565911
C           45.13680021399674       -3.29919863719813        1.03345767744450
C           45.14420711936897       -4.70921558883918        1.48454650920544
C           44.39611536131093       -5.67709192893386        0.80943065185625
C           44.40864201076781       -6.99768139002333        1.22102747249286
C           45.17179158366032       -7.38036297549731        2.32739959605332
N           45.14957431653604       -8.69062153713169        2.77052410446395
C           45.91117889524647       -6.41548431723710        3.01674640820325
C           45.90165801670825       -5.09896760037001        2.59196335634030
C           43.92671530542846       -2.61836550898752        0.98440815383106
C           42.67678977541001       -3.18156059743071        1.39336792765953
C           41.71696259683029       -2.28027357266910        1.07113935620169
C           42.38486279948359       -1.16322405625267        0.48528049422678
N           43.73852048141464       -1.35458094105255        0.47041807348259
H           40.63872640445471        2.27688941088269       -1.20609347219693
H           42.52200594559397        4.15022928528195       -1.66479100751755
H           44.53051010213474        4.32200803478093       -3.34999815141267
H           44.53190343737375        6.70261786982047       -3.99363689394627
H           45.17972015803964        8.91998187077919       -3.37860172413201
H           45.64267822593262        9.34078160334196       -1.81074383561505
H           45.69402556614730        7.77420259540704       -0.00385480293892
H           45.68576724635489        5.39166238531530        0.63407826715776
H           47.70087425019593        4.40707518481764       -0.81839171125160
H           49.60559399425335        2.56011864547066       -0.34049072274834
H           49.60200270990398       -2.63762500710523        0.19854202061414
H           47.71155371980130       -4.46649212876824        0.79411834880162
H           43.81646388767979       -5.39168645253208       -0.06162492855828
H           43.83002088414256       -7.74127378477146        0.68393974795519
H           45.93990331060682       -8.96545861354591        3.33148997858004
H           44.88435877955802       -9.37151607570508        2.07704543265971
H           46.49363470342265       -6.70369544902927        3.88500307827802
H           46.47195627725661       -4.35460766598988        3.13685164253725
H           42.55766965816860       -4.14119957244384        1.86909859227528
H           40.65083558547786       -2.35016172767226        1.21503984945001
