248
 energy: -448.719238183969 gnorm: 0.000597265239 xtb: 6.5.1 (b24c23e)
Fe          44.66199769876572       -0.26252973022977       -0.10011213547610
C           41.25889951126643       -0.23560234422128       -0.15909183541045
C           41.89420438373547        0.60020270405722        0.73504513642023
C           41.20066016898532        1.45038249883938        1.65500853417223
C           42.14815180565611        2.13868084342694        2.33518824301707
C           43.41467352389315        1.70570373469236        1.82650336466516
N           43.25160169606765        0.76444129093203        0.85292874267411
C           44.63614195256093        2.22298183391716        2.26334055905455
C           44.62222833736240        3.23212854277507        3.25044438926980
C           44.60204428005002        4.10195756018622        4.09634939851616
C           44.57336572866696        5.11637723779979        5.08061263641348
C           45.74946383179787        5.72832438483763        5.52946853303656
C           45.66416624357883        6.71757345757143        6.49297174482017
N           44.51149843692225        7.12115931461636        7.02113727797921
C           43.38897374222365        6.54385262891079        6.60015786251160
C           43.36509014559755        5.54689614873819        5.64128341238357
C           45.86616103116229        1.78727707430637        1.77027951881867
C           47.11959527308557        2.30942994278529        2.21796774218790
C           48.08355430494735        1.62590455290582        1.55436987098511
N           46.05516461664950        0.80827814019999        0.83205552421826
C           47.41162517788707        0.69196635950570        0.70612930952726
C           48.08468695049262       -0.21720777078297       -0.11424808642777
C           47.42697061587617       -1.13208843773747       -0.94133397800883
C           48.11410324830135       -2.07360660774469       -1.76874764764079
C           47.16248215376016       -2.76076339700936       -2.44635179165071
C           45.90124924066289       -2.23365682817461       -2.02760525269269
N           46.07361672478141       -1.23891105689601       -1.10298800851489
C           44.68017540956372       -2.67461066094035       -2.53840104406834
C           44.68672308263226       -3.68499660919730       -3.52433415567215
C           44.68843628994261       -4.55311309225497       -4.37220640904574
C           44.69228978408293       -5.56285523028959       -5.36169517608574
C           45.88851362901326       -6.13528483323452       -5.80977299424776
C           45.83773808082647       -7.11990953368214       -6.78034284428181
N           44.70011395857316       -7.55546531957530       -7.31572950071143
C           43.55865067737152       -7.01633410913898       -6.89512576435369
C           43.50010749684204       -6.02697333081590       -5.92979955443284
C           43.45040796550904       -2.16508703744174       -2.11658991002717
C           42.19248635736715       -2.61466290138512       -2.63216807066523
C           41.23270553464038       -1.93056875565244       -1.96518306978918
C           41.91020045971820       -1.06711257042405       -1.04557013353947
N           43.27052035931423       -1.20813540836601       -1.16123658761800
H           40.17465050678507       -0.24140439699316       -0.16346522602319
H           40.12776168302462        1.49961759131682        1.75207484242541
H           42.02033857227062        2.87599474331943        3.11150240247138
H           46.70950601148266        5.43008365927437        5.12588465993419
H           46.56039527538674        7.21008011352550        6.85910021485737
H           42.46661193629572        6.89704260014355        7.05221864667186
H           42.42795311893114        5.10362534943505        5.32683996687062
H           47.23071012524378        3.09352977498759        2.94952244658821
H           49.15433616186142        1.72951518567751        1.62455601152081
H           49.18567343555674       -2.18244290681974       -1.81426012384112
H           47.28699133075327       -3.55359581492168       -3.16624731893787
H           46.83725654663772       -5.80990077378486       -5.40044330511617
H           46.75025959933032       -7.58153783483425       -7.14646729244160
H           42.64943704106420       -7.39503235559075       -7.35313850265149
H           42.54840475379069       -5.61527962941163       -5.61622716915068
H           42.07849266551196       -3.36103406934225       -3.40195625435712
H           40.16107315648183       -1.99375316594533       -2.06801418461514
Fe          92.63789542784750       -0.25341927656444       -0.13471365543550
C           96.03677854211054       -0.38882005303112       -0.19006605098460
C           95.34312046136917       -1.53192342051707       -0.52765155000562
C           95.97488219439327       -2.76372336844796       -0.89345152932661
C           94.98095458539244       -3.65213751341430       -1.13260538843509
C           93.74835557581162       -2.96003240337706       -0.90478919590463
N           93.97724268907798       -1.66298972235892       -0.55127120144646
C           92.49525688435514       -3.57004057982276       -0.99848832676900
C           92.43608041498459       -4.93385353947063       -1.35817591497153
C           92.38609881540715       -6.10480188217506       -1.67279244856015
C           92.32593416923241       -7.46869944671357       -2.04000218236524
C           91.09946331228321       -8.12815314476383       -2.18253291880117
C           91.09486053249049       -9.46326275551839       -2.54520375392653
N           92.20624487971639      -10.16040990048301       -2.76728278132539
C           93.37616734951132       -9.54078965243757       -2.63363728683868
C           93.49015834146459       -8.20922621824205       -2.27577108853435
C           91.30144384341791       -2.89722332090410       -0.73839947370370
C           90.01921612768754       -3.52796013104075       -0.78322239139477
C           89.10507826306650       -2.56872603259140       -0.49818714146056
N           91.17807349408898       -1.56948761957176       -0.42770919594480
C           89.83529476510337       -1.35765306128891       -0.28929580717469
C           89.21972696697215       -0.12505100879898       -0.04693150681461
C           89.93434618799300        1.06337320295286        0.13217966681060
C           89.30641620563725        2.32659092096853        0.36276314660234
C           90.30317686127529        3.22820435243211        0.53813206801249
C           91.53232540043007        2.50799951321424        0.41591631824501
N           91.29520564809481        1.18585911144866        0.15021834502471
C           92.78518292644802        3.09641261569778        0.58733709386140
C           92.85032422014091        4.47118213108105        0.90149200697753
C           92.91574444666634        5.65061926304434        1.17942536479843
C           92.99788004242208        7.02302586765371        1.50878026430236
C           91.84736372048917        7.78761823713327        1.73424708174864
C           91.98522532889730        9.12548170293649        2.05885972229036
N           93.16570439017238        9.72969924844417        2.16774585229378
C           94.26422340296942        9.00994362009622        1.95382832139301
C           94.23570224361326        7.66632349449258        1.62546702974114
C           93.98219532036825        2.38424571575390        0.47868434568630
C           95.27155322080539        2.97422645696722        0.67811179520820
C           96.18337035924971        1.99503901601979        0.46804013370852
C           95.44553779058784        0.81315484330957        0.13797918481106
N           94.09647852411904        1.06456284655983        0.15505069452799
H           97.12005099088412       -0.43581414225075       -0.19107435031754
H           97.04174144777143       -2.90961969883386       -0.95253323127797
H           95.05619057511448       -4.68607150095793       -1.42919521948913
H           90.17048207125134       -7.59787069528798       -2.01125200924889
H           90.15785422308890       -9.99979951867930       -2.66349389633713
H           94.26267902766884      -10.13944255104976       -2.82218935398044
H           94.46344671364007       -7.74364446706917       -2.17832728370154
H           89.85620509887325       -4.57061891975712       -1.00372351379849
H           88.03233036800899       -2.65655014462015       -0.43800990999600
H           88.24035459439287        2.48524543092342        0.38797842900710
H           90.22942819281985        4.28500775940411        0.73834978427830
H           90.86615505931530        7.33519030006210        1.65649574318519
H           91.10981704020726        9.74230960011154        2.24057220260602
H           95.21044164656836        9.53449346142575        2.05063340042190
H           95.15483765541730        7.11725882894000        1.46021143430254
H           95.43800216869720        4.00600744651144        0.94332340230324
H           97.25904645329194        2.04887527378801        0.52263806177583
C           53.28718397541666       -0.23973991915202       -0.14041226518335
C           52.05923212935911       -0.22452272384668       -0.12150772043112
C           50.71417928687403       -0.21474180723290       -0.11083967330481
C           49.49050577381316       -0.21398551098352       -0.10790816642835
C           54.63125892366551       -0.27550481564711       -0.17030043856904
C           55.85369648629766       -0.32188550470886       -0.20984301246362
C           69.27871490935702       -0.16585486413040       -0.05310377332406
C           68.04785645422965       -0.16285493774842       -0.06073266154849
C           66.70799347846918       -0.19237626915758       -0.09127992037902
C           65.48379694088482       -0.24662648193955       -0.13728116188112
C           70.61866596898602       -0.20077984173439       -0.06624503830980
C           71.84325777830995       -0.25735360777441       -0.09771799877541
C           85.24970251799930       -0.06300679818086        0.04979642962054
C           84.02073457394738       -0.08346636701728        0.04777807392923
C           82.67863071515212       -0.13526374621592        0.02437689588559
C           81.45650648647361       -0.20150782826681       -0.02131189527242
C           86.59325031843717       -0.06413121458400        0.03455867651651
C           87.81719960931116       -0.08254094711752        0.00269592938151
Fe          60.67401644426200       -0.54177069960964       -0.36158879044673
C           57.25539974208272       -0.39741460964982       -0.26434063608231
C           57.92356480568400        0.29245261119368       -1.28098182867972
C           57.24912547155885        1.03116512582714       -2.30172616743859
C           58.20289708242112        1.45229765904600       -3.16871002154132
C           59.45379385027087        0.98840346061252       -2.65597616147173
N           59.27300512483264        0.28458111576877       -1.49830930239912
C           60.68266818296736        1.26182899933630       -3.26279855664418
C           60.68257519587394        1.95762306002645       -4.49098199951634
C           60.68023201707695        2.54834872040619       -5.55106374816473
C           60.67791241897507        3.23958461619050       -6.78436678513194
C           61.87073021064876        3.52024558845323       -7.46088721831208
C           61.81378812180007        4.20005212862180       -8.66459634421123
N           60.67340021172231        4.60533193744329       -9.21733435313727
C           59.53520474120420        4.34262753335847       -8.58033615403950
C           59.48274540707096        3.66894522348342       -7.37297041434381
C           61.90924720807497        0.92867874241342       -2.68776147868687
C           63.16900052253412        1.32296652012427       -3.23666016038344
C           64.11796881914128        0.92086669285041       -2.35556464151440
N           62.08357318578171        0.26896845262058       -1.50076733444680
C           63.43121703868206        0.26238962386169       -1.28907014740107
C           64.08876791964285       -0.33855396362335       -0.20726227149688
C           63.41896013611542       -1.09938194606114        0.76002229672951
C           64.09374302939554       -1.82283242809450        1.79161756589528
C           63.14477961603006       -2.53369325695947        2.44945895383479
C           61.89585164899444       -2.21813127661912        1.82992240173807
N           62.07534229593082       -1.33441754072734        0.80035956561075
C           60.67204459081225       -2.73298919747133        2.25909429057953
C           60.67206501565889       -3.68318446372303        3.30292579002389
C           60.67214503863581       -4.50713169105558        4.19389445662780
C           60.67085774801473       -5.46482995374239        5.23388416372533
C           59.47704827258034       -6.02831214917188        5.69923967003686
C           59.53006885127390       -6.96113240822544        6.71969381682507
N           60.66759709579871       -7.35371948787139        7.28730897094958
C           61.80670071272045       -6.82265515340447        6.85066447908574
C           61.86298450712182       -5.88358392094701        5.83612674652000
C           59.44304847430418       -2.31360279787446        1.74362161192165
C           58.18432905487075       -2.73547531124772        2.27344437487365
C           57.23077809604901       -2.04172472874790        1.60407975913025
C           57.91432253449518       -1.22190215319769        0.65385618228417
N           59.26634666827404       -1.39665925320259        0.74480182512032
H           56.18312863705088        1.18603934604497       -2.34410960171038
H           58.08596242111444        2.03255412497995       -4.06974944849056
H           62.82134817218393        3.20815763600884       -7.04565701739135
H           62.72325799799915        4.43114341580379       -9.21158115245040
H           58.62386000845628        4.68791870847941       -9.05983964223400
H           58.53378894661323        3.47564284708310       -6.88759019092328
H           63.29430722963810        1.85151119108051       -4.16790572300971
H           65.18748338392059        1.04286929511386       -2.41396895901579
H           65.15683578809316       -1.79261860224608        1.96785022192619
H           63.26333963981607       -3.20489234688886        3.28475833878626
H           58.52869356720597       -5.73638875448160        5.26463123540669
H           58.61974698371086       -7.41502760069501        7.10048762157589
H           62.71565569954260       -7.16567993008776        7.33633521236086
H           62.81255644650157       -5.47626479830324        5.51069270484445
H           58.06222139375355       -3.45717642517356        3.06493015444152
H           56.16016260819789       -2.07907961054823        1.72443213116139
Fe          76.65204194523646       -0.52910314319135       -0.27955966586651
C           73.23849054658042       -0.34907873805263       -0.15827778656688
C           73.90161457495127        0.24711370739129       -1.23996619559089
C           73.22190741783312        0.88254742432322       -2.32463113227545
C           74.17781735692864        1.27885055494345       -3.20128259734338
C           75.43451572135255        0.90971596054200       -2.62875287057551
N           75.25128902266445        0.26406191755293       -1.43573407126854
C           76.66602155586682        1.26820623215898       -3.17895312483016
C           76.67775262536745        1.94147227671902       -4.41925434319784
C           76.68846470591031        2.50377748077866       -5.49465929055937
C           76.69835461381874        3.15876505017214       -6.74751638578933
C           77.90007784897162        3.50374131378771       -7.37681961933812
C           77.85416697779370        4.14132076937403       -8.60391298183090
N           76.71634807326458        4.44734119019985       -9.22194881633454
C           75.56972210713506        4.12337948067139       -8.62993970590960
C           75.50599347576977        3.48393807901519       -7.40463113359535
C           77.88450547336366        1.04686877246210       -2.53135706395408
C           79.13106963290035        1.56974106250026       -2.99508508477940
C           80.07050341532491        1.18604930128522       -2.09528365992293
N           78.05482013834937        0.34531837320762       -1.37067178115590
C           79.39403311494681        0.40563157930636       -1.10726610984652
C           80.05979157597871       -0.30564775572944       -0.10205056568031
C           79.40327503556188       -1.19035632939341        0.76217419737354
C           80.08581130071329       -2.03754093611448        1.68864232624376
C           79.13331524546581       -2.76990497403962        2.31778706318006
C           77.87559727823255       -2.34362626010030        1.78909231975495
N           78.05389248975088       -1.38901566184665        0.82593523176813
C           76.64464626842862       -2.78319141744675        2.28228621748043
C           76.63885272770506       -3.75989864778947        3.30119497129081
C           76.62978895517489       -4.60456058886919        4.17255782676685
C           76.61555349327016       -5.58417733587844        5.19187978797508
C           75.41013784175081       -6.07521639784624        5.70694191292321
C           75.44901273682312       -7.03225780573971        6.70533292666442
N           76.58346838624141       -7.51400996428547        7.20648909390647
C           77.73349916946978       -7.05219865700836        6.72240822700726
C           77.80426843847047       -6.09669940636131        5.72415132530395
C           75.42158550208497       -2.25753224132639        1.86131574073679
C           74.17035356068844       -2.58074551922187        2.47196477804282
C           73.22514569071497       -1.85257093734988        1.82719088041047
C           73.90399715618716       -1.11345351067537        0.80962413502036
N           75.24695934467505       -1.35285972313219        0.84991654355825
H           72.15211002341822        0.99305469223275       -2.39851685984935
H           74.05865966156360        1.79160318389829       -4.14211209438673
H           78.84891037560283        3.27259106881751       -6.90806345257460
H           78.77066003991857        4.41991022404176       -9.11588417412707
H           74.66078046636291        4.38819354323596       -9.16229415328854
H           74.55049872895803        3.23762733870397       -6.95757157894472
H           79.25455232192550        2.16191136519449       -3.88747145291363
H           81.12932377107701        1.38852284693652       -2.09819604988467
H           81.15510099678752       -2.06396270168652        1.82309205276944
H           79.25528798463836       -3.51938546296545        3.08307036525705
H           74.46391086625647       -5.70942811337024        5.32701114717098
H           74.52948390460580       -7.43153914470074        7.12337089096435
H           78.63946075654728       -7.46707313826102        7.15461892030187
H           78.76247881909194       -5.74786135119459        5.35863492814270
H           74.04729928945899       -3.26810042380950        3.29336181389195
H           72.16177505873119       -1.82237855975877        2.00181960744443
