380
 energy: -653.557563779802 gnorm: 0.000337051636 xtb: 6.5.1 (b24c23e)
C           79.42953819454674        0.01764350940350       -0.01911407171424
C           80.03417385868741       -1.20668437228316       -0.27363995478456
C           79.40032853828924       -2.45339971021439       -0.54479915886591
C           80.37769066668012       -3.38902084533427       -0.73622580312650
C           81.63929899203598       -2.74389183669932       -0.58784608088106
N           81.38072883787162       -1.43276546489296       -0.30980088199014
C           82.89875632445958       -3.31963172349240       -0.70450331948354
C           84.12941762032330       -2.69383903360757       -0.56450328352124
C           85.39501287974193       -3.38830092701892       -0.72071195954505
C           86.36112566944149       -2.46833614159524       -0.52055411563522
N           84.34674316812823       -1.38229211559111       -0.27475767603478
C           85.68343090807963       -1.21570690492733       -0.23916339780043
C           86.35877002848000       -0.00522701642883        0.01787052826948
C           85.72825741667448        1.22662334807785        0.27484919473347
C           86.35419658072577        2.47004822778098        0.55985764978061
C           85.37260874885636        3.40239223393201        0.75397997478158
C           84.11625256389893        2.75388814549078        0.59601430584300
N           84.38330772188363        1.44265882215920        0.30844955142435
C           82.85801582667851        3.33206179305789        0.71152801177664
C           81.62652994443300        2.70586697091354        0.56745588043300
C           80.35355858211203        3.39634543872044        0.70688586960421
C           79.39393217621642        2.47169108059834        0.50286147991102
C           80.08160212907281        1.21752827716148        0.23975163808184
N           81.42296958273201        1.39734819657307        0.28629302362512
H           78.34479741419078        0.02940342790159       -0.02482438865154
H           78.33263307574377       -2.59976276231703       -0.58553638815010
H           80.25032342941536       -4.43610064486379       -0.96110977785775
H           82.08644702694242       -0.72129052866177       -0.15201158702705
H           82.91270020322852       -4.38021509110664       -0.93476119762143
H           85.49698276083667       -4.43635689107957       -0.95492357038822
H           87.43091513261193       -2.59617252139384       -0.55941047921116
H           87.42026890262792        2.62074610973548        0.61357849896317
H           85.49650411852814        4.44758757335687        0.98858799437821
H           83.68071192210050        0.72863610295311        0.14660596468095
H           82.84690498408597        4.39256084621234        0.94191784874468
H           80.24557879707379        4.44626593090890        0.93067132122859
H           78.32199336783627        2.59244353300853        0.52194824004896
C          185.74799393983230       -0.01953434662743        0.00690572776397
C          185.14055881711829        1.19568279813728       -0.28229782414630
C          185.77096424460564        2.43923647110473       -0.57496032410001
C          184.79094408016817        3.36404975183080       -0.80208396351591
C          183.53111558049756        2.71517871548856       -0.65484232387216
N          183.79333650239326        1.41294021848465       -0.34103021367748
C          182.27027287918040        3.28034764733367       -0.80382998200968
C          181.04063447842532        2.65290095761269       -0.66255238318256
C          179.77472857538646        3.33779093587045       -0.85396950410186
C          178.80939114812381        2.42128813410400       -0.63520419242702
N          180.82410895124821        1.34980743875146       -0.33599448528754
C          179.48758559834661        1.18033806575401       -0.30767619452702
C          178.81312951991558       -0.02287317000943       -0.01491093279774
C          179.44702120307304       -1.24496174659477        0.27890969612502
C          178.82509410253860       -2.48283949656511        0.59465970237259
C          179.80952071342145       -3.40631687242486        0.81504006148579
C          181.06391680527253       -2.75735549244460        0.64413772276122
N          180.79274306858275       -1.45509041232770        0.32167025491686
C          182.32349549590069       -3.32821219704864        0.78015799593224
C          183.55425159159071       -2.70200488073604        0.63013042948242
C          184.82800987304967       -3.38518521692948        0.79621410580408
C          185.78670549255872       -2.46200101331764        0.58137319532902
C          185.09769927532344       -1.21618683575768        0.28444606487420
N          183.75647845585101       -1.39946870061161        0.32177458119436
H          186.83275523480637       -0.02640961558123        0.01403526434398
H          186.83826124158625        2.59098896815699       -0.60501362104273
H          184.91536300258252        4.40613886328835       -1.05055869122227
H          183.08995854392771        0.70098448511149       -0.17511555822991
H          182.25421673844602        4.33429206031809       -1.06272772447579
H          179.67202346686611        4.37767988556259       -1.12180724715584
H          177.73985298623467        2.54423600416324       -0.69050916145382
H          177.75953668467551       -2.63633139137522        0.64919652482990
H          179.68881689707160       -4.44558915109670        1.07614998281808
H          181.49286570267213       -0.74240911658651        0.14386918294509
H          182.33635656769508       -4.38280302888272        1.03626752992199
H          184.93715633278063       -4.42963155985166        1.04379041281225
H          186.85878386728467       -2.57879607323166        0.61318143884493
C           87.76696813032093       -0.01123594758958        0.01791379820648
C           88.98427586748471       -0.00902333969077        0.01729432144645
C           98.80714354239453        0.02862936760387       -0.00906950317998
C          100.02496639923382        0.03034084710636       -0.01127894206670
C          109.85339751275666        0.00828969313345        0.02533187108787
C          111.07138041542190        0.00528587559006        0.02697713052553
C          120.90835122092622       -0.00238586643557       -0.01129622787852
C          122.12671347328886       -0.00193449141606       -0.01910048443805
C          131.97519650220860       -0.01758736987441       -0.00349468724349
C          133.19383622882617       -0.01469787772488       -0.00576283758943
C          143.03634008247209        0.01648606282291       -0.00202062854928
C          144.25436054056684        0.01497127484680       -0.00235040483456
C          154.08524735965514       -0.00380399033250        0.01532426740751
C          155.30312225873638       -0.00337256341718        0.01236257587319
C          165.13642499338980       -0.00052985525153        0.00197013426662
C          166.35452319379957       -0.00135056242884        0.00170588187759
C          176.18748095176875       -0.01450326161972       -0.00677791813593
C          177.40498993453036       -0.01784407259597       -0.01306839844842
C           90.39164029823458       -0.00272663103508        0.00916490627902
C           91.02629679864894        1.22579450163982       -0.25655225904569
C           90.41059319066015        2.47201778875111       -0.54583155555347
C           91.40128914654004        3.39307972593766       -0.75335520188994
C           92.65101480813307        2.73322259675162       -0.59839521811983
N           92.37324967144026        1.42786150489402       -0.29874804592388
C           93.91368545552733        3.30160794578331       -0.73013944764922
C           95.14850147269163        2.68657288400331       -0.59335158128793
C           96.40714952959978        3.39033058967906       -0.76280011825340
C           97.38247908180209        2.48022534515605       -0.56052712861183
N           95.37939835134902        1.37886380966497       -0.29514284360534
C           96.71724341127349        1.22442846807656       -0.26731103857594
C           97.40057907469048        0.01807132094824       -0.00854051203888
C           96.76564652349319       -1.21176426949359        0.25134623383053
C           97.38059614434724       -2.45883083964133        0.53910584487373
C           96.38963106712293       -3.38181823375540        0.73471298738587
C           95.14010917549570       -2.72218252189125        0.57576272495486
N           95.41869013535491       -1.41484587386580        0.28459245737037
C           93.87774901487478       -3.29170019218358        0.70147092379675
C           92.64258841799835       -2.67520735069467        0.57158106291140
C           91.38402298627044       -3.37840206369087        0.74521656298851
C           90.40858906913574       -2.46596880245889        0.55537642121652
C           91.07365421452117       -1.20988942622471        0.26276277990871
N           92.41208109787948       -1.36614003250862        0.28156508724747
H           89.34582704477586        2.63319697580559       -0.59389437658778
H           91.28645258962877        4.43761461783372       -0.99540622768870
H           93.06585795213117        0.70412220525167       -0.13647630399972
H           93.92282334666557        4.35964691903720       -0.97334861539189
H           96.49883491638681        4.43742081489165       -1.00554127989777
H           98.45108851685103        2.61660298334408       -0.60637046482927
H           98.44492720178222       -2.61945805505216        0.59380543491160
H           96.50375100082719       -4.42753572436333        0.97184846159659
H           94.72635049449978       -0.69134782652275        0.12023479791191
H           93.86851863597360       -4.35138889896874        0.93734891162793
H           91.29269434808195       -4.42660671032237        0.98312021232692
H           89.34031095436927       -2.60096888926841        0.60879881970079
C          101.43149264390478        0.03432341923606       -0.01124915717472
C          102.07439216385181        1.26897116557531        0.20229302170703
C          101.46873306373060        2.53096579221206        0.43932380932907
C          102.46690248844271        3.45262860688367        0.60334402107166
C          103.71136979200347        2.77720085357986        0.47450803559167
N          103.42292811225441        1.46226516089436        0.23216080832951
C          104.97827486804705        3.34080611779056        0.58354307560009
C          106.20937769983129        2.71177827379006        0.48012450949045
C          107.47164694348010        3.41326417628077        0.63095233061768
C          108.44203714708044        2.48878307449175        0.47552497603681
N          106.43337565963647        1.39135598242708        0.23806657121454
C          107.77037291161457        1.22685592044250        0.22727987393257
C          108.44695120570657        0.00672814803490        0.01973700538415
C          107.80369324826746       -1.22720996179105       -0.19738814498190
C          108.40937048255375       -2.48928108688128       -0.43427916336227
C          107.41127239932173       -3.40961440394999       -0.60551097558809
C          106.16677227547474       -2.73353554632171       -0.48033580560670
N          106.45522124610829       -1.41930452199951       -0.23357944412967
C          104.90011810086031       -3.29653660402978       -0.59328022758166
C          103.66893454244712       -2.66811655743000       -0.48614167878061
C          102.40662499181963       -3.36995844956575       -0.63433722358594
C          101.43627618211022       -2.44670916009798       -0.47155596097339
C          102.10808204121591       -1.18497014689897       -0.22297115278798
N          103.44523023671914       -1.34861709623116       -0.23950436678844
H          100.40549729128848        2.70235931934821        0.48280806160883
H          102.36065360031228        4.50759221237372        0.79971416293739
H          104.10921664586647        0.72671029112255        0.09856449388906
H          104.99477493598268        4.40837276273684        0.78044178981656
H          107.56892784406905        4.46871683733850        0.83158530308095
H          109.51109051570624        2.61939724392892        0.52658828148462
H          109.47262073945869       -2.66159366322717       -0.47294591554394
H          107.51748560690874       -4.46421137148571       -0.80385455338801
H          105.76896586855814       -0.68339569949167       -0.10168317987786
H          104.88362444699938       -4.36338009964770       -0.79401622514054
H          102.30918839542062       -4.42489300618784       -0.83759403604274
H          100.36714468555498       -2.57805803513106       -0.51822850434422
C          112.47776482212967        0.00940923625633        0.02565566892839
C          113.11973623552426        1.23618082234116       -0.23247720867756
C          112.51347116762152        2.48836362540071       -0.51518698432569
C          113.51119942075212        3.40322842404424       -0.71578805461888
C          114.75595103495630        2.73310679698135       -0.56439284538935
N          114.46816558195678        1.42828421319359       -0.27196898219302
C          116.02217478097791        3.29263230794896       -0.69894116458835
C          117.25472579254846        2.67035213480849       -0.57506441712956
C          118.51423678170903        3.36844984688525       -0.75938374684640
C          119.48760041614609        2.45358707882149       -0.56999149013133
N          117.48362065479112        1.36157320001598       -0.27939970742464
C          118.82114805312001        1.20144757813469       -0.26605219288950
C          119.50210639008534       -0.00588966998654       -0.00201458191015
C          118.85895431249820       -1.22841265465530        0.27532546750390
C          119.46388033924805       -2.47703856777299        0.57541139504767
C          118.46582559395759       -3.39036421778027        0.78092019897779
C          117.22154640175987       -2.72295420662376        0.61503211515464
N          117.51035592972475       -1.42059758240245        0.31182997757327
C          115.95555353983275       -3.28511054842018        0.74066191428322
C          114.72247416560644       -2.66709211015605        0.60078910719533
C          113.46213655374666       -3.36842911430150        0.76771880130552
C          112.48887193165002       -2.45525824425765        0.56902550965115
C          113.15696682756906       -1.20036231250866        0.27947312237449
N          114.49461106131798       -1.35826571934610        0.30594755251630
H          111.45020838482287        2.65802286446619       -0.56322190040917
H          113.40446836911435        4.45004680541596       -0.95152041357434
H          115.15431405658963        0.69780734286320       -0.11214267045446
H          116.03676594503715        4.35172060072027       -0.93759032522047
H          118.60794040394670        4.41505586009698       -1.00331379241006
H          120.55577364960320        2.58532794569563       -0.63060577314185
H          120.52668559642500       -2.64590443407332        0.63139540612808
H          118.57212595157903       -4.43448699760261        1.02849454273477
H          116.82453831772160       -0.69238011218748        0.14058674095383
H          115.94171841239722       -4.34323277496693        0.98356079278058
H          113.36790872737053       -4.41609868072456        1.00693895519470
H          111.41997518561884       -2.58911076628673        0.61525032768559
C          123.53288886765230        0.00138525934058       -0.02373156632600
C          124.17917135023440        1.25028249115488        0.06394643044234
C          123.57862668917564        2.53183725151776        0.17208986198999
C          124.57988862475040        3.46243196631423        0.23559151033805
C          125.82170710487883        2.77326951240834        0.17264539897459
N          125.52842393251322        1.44128606603648        0.06873461684112
C          127.08949461192627        3.34340013953567        0.21936931099760
C          128.32150516424480        2.70919815785417        0.18113474161187
C          129.58096319199370        3.42689526927435        0.25935350056242
C          130.55428586936000        2.49442990675323        0.20136556253838
N          128.55057145199598        1.37149392332344        0.07690415966623
C          129.88820812061707        1.21138030280998        0.08336576772171
C          130.56894271489514       -0.02185761895149       -0.00428349174400
C          129.92209624234150       -1.27055714959697       -0.09432160853558
C          130.52188056951027       -2.55265125158456       -0.19919210474310
C          129.52032273664523       -3.48272074708043       -0.26510506763158
C          128.27870956993968       -2.79284574656659       -0.20632298079769
N          128.57266045407513       -1.46086859246716       -0.10290258746138
C          127.01104741755046       -3.36323777949439       -0.25506167289992
C          125.77868274813729       -2.72963372755631       -0.21634282153949
C          124.51880197073021       -3.44703328240446       -0.29312761643696
C          123.54549834010024       -2.51468200099607       -0.23109787337749
C          124.21249469398595       -1.23195587697556       -0.11311840775674
N          125.55010819919036       -1.39217859205777       -0.10997968539402
H          122.51649691038928        2.71092561300603        0.20246774154651
H          124.47731056774685        4.53238601244438        0.32185649918994
H          126.21121638759614        0.69274204047182        0.00923148963490
H          127.10594104718169        4.42576124097475        0.30370021074381
H          129.67475795078093        4.49774080247426        0.34965864334768
H          131.62230223077719        2.63399045680971        0.24037410294619
H          131.58386523183620       -2.73271584348021       -0.22540678668958
H          129.62262289294245       -4.55284212383348       -0.34957864658763
H          127.89021523027964       -0.71184156687614       -0.04542102276036
H          126.99518203399134       -4.44558661736604       -0.33978240229897
H          124.42478450367787       -4.51773676259965       -0.38507881584119
H          122.47711107465037       -2.65368403304858       -0.26760023559628
C          134.60012332268329       -0.00569619706863       -0.00690920849640
C          135.24096357241334        1.23111602925913       -0.22052966349358
C          134.63406968911141        2.49154690954650       -0.46045402220805
C          135.63002464868143        3.41780125189044       -0.61022377223711
C          136.87542806229800        2.74683403652373       -0.46989403279248
N          136.58917384043733        1.42948489017951       -0.23705555441510
C          138.13963452363882        3.32002493349090       -0.55867017638146
C          139.37511033051524        2.70136113429512       -0.44633527815846
C          140.63258986009569        3.41589397463589       -0.57442467568650
C          141.60957820044644        2.49794860373360       -0.42116857333572
N          139.60835557072099        1.38025441838852       -0.21816733720512
C          140.94662986914182        1.22712832997586       -0.19681855087850
C          141.63002380629348        0.00889155583302       -0.00109440665965
C          140.99098113014702       -1.23054866478551        0.19764035692210
C          141.60018433454823       -2.49265320316873        0.42398538793303
C          140.60472075461144       -3.41892584397874        0.57805603124596
C          139.35837687530986       -2.74635218626034        0.45303993844432
N          139.64304456760928       -1.42837831632120        0.22315997641854
C          138.09371089741143       -3.31618743029905        0.55509078018899
C          136.85878215296381       -2.69455853087730        0.45369580314050
C          135.60215384357818       -3.40714186687990        0.59735549350495
C          134.62490631517721       -2.48953501506894        0.44472984923777
C          135.28588518038100       -1.22091634912957        0.20451856122205
N          136.62422953316113       -1.37449145811722        0.21865698368905
H          133.57136816760288        2.65990232157212       -0.51620161459946
H          135.52148764815220        4.47306389858536       -0.80354382993669
H          137.27616053627079        0.69550664595502       -0.09802182434275
H          138.14949286491367        4.38946314380640       -0.74592899309716
H          140.72249324033410        4.47482626898743       -0.75964819333560
H          142.67792164781451        2.63869792526206       -0.45845270850415
H          142.66375855578033       -2.66104436497800        0.46854189697185
H          140.71407332984364       -4.47524601004670        0.76516388371574
H          138.95524138960312       -0.69321165024929        0.09499217595844
H          138.08261304121223       -4.38535902513119        0.74378798792550
H          135.51278063758244       -4.46455628352104        0.79118681921315
H          133.55724459198689       -2.62990737321210        0.49170869868330
C          145.66078717085333        0.01731798099878        0.00059602075517
C          146.30445488387966        1.24319705449097        0.25889086505231
C          145.69929935059153        2.49590889383665        0.54193053148800
C          146.69771511611000        3.41061565525081        0.73956549992782
C          147.94200581230112        2.74020986807697        0.58508297951605
N          147.65301907988402        1.43485313576557        0.29553241876803
C          149.20874907130928        3.30083129507067        0.70943163512347
C          150.44037675643588        2.67818358179473        0.57653652630520
C          151.70251680978276        3.37714890331043        0.73984425871573
C          152.67348275047561        2.46053486494565        0.54579204255100
N          150.66483232613183        1.36695647927918        0.28983794965765
C          152.00211552275204        1.20562640183583        0.26354150077106
C          152.67866583308924       -0.00704420804963        0.01686311311918
C          152.03531487714793       -1.23525508621337       -0.23016011849388
C          152.64080908941082       -2.49016405594773       -0.50270835306077
C          151.64249091185258       -3.40624168956760       -0.69459023236150
C          150.39809271573270       -2.73433761366509       -0.54773979932234
N          150.68675559443525       -1.42716690925229       -0.26659544489705
C          149.13126371488261       -3.29408868069192       -0.67571060722455
C          147.89984585732017       -2.66903413731035       -0.55339155997026
C          146.63802175767387       -3.36591193144538       -0.72727895894204
C          145.66709919334528       -2.44772987994273       -0.54093208159135
C          146.33788860905221       -1.19441434850965       -0.25059467146865
N          147.67502279086801       -1.35748315000514       -0.26775072441182
H          144.63616304212195        2.66590440642587        0.59189354411983
H          146.59177201856480        4.45769813968770        0.97450340314253
H          148.33891295905474        0.70430009789648        0.13508923644717
H          149.22476222058998        4.36079587661034        0.94395288877807
H          151.79939287857016        4.42581242589875        0.97362005218732
H          153.74274943266846        2.59195875112517        0.59110712800605
H          153.70405657366570       -2.66058674398459       -0.54973809589349
H          151.74854226696743       -4.45512718187952       -0.92126872290211
H          150.00065703693005       -0.69550084022525       -0.11222492610066
H          149.11508811803105       -4.35498853095430       -0.90587545923142
H          146.54129481687724       -4.41416716425569       -0.96290133370437
H          144.59818127114957       -2.57739101313118       -0.59622594347319
C          156.70967503894568        0.00095920666852        0.00785282717178
C          157.35064175570318        1.23047018372140       -0.23886183868933
C          156.74279596096002        2.48421706526836       -0.51172751011037
C          157.73943545663468        3.40186578374808       -0.70469691952193
C          158.98514453159018        2.73241352111484       -0.55722055206574
N          158.69881761874177        1.42472280529257       -0.27584705494177
C          160.25079772428842        3.29513045960966       -0.68281498931463
C          161.48383537087480        2.67378884960706       -0.55673458615388
C          162.74386565511929        3.37515913586356       -0.72522109210478
C          163.71724298495923        2.46020638669057       -0.53570724373256
N          161.71209434080356        1.36284809248068       -0.27143450904766
C          163.04983580301149        1.20423316436253       -0.24958075246750
C          163.72990658084404       -0.00570577937128        0.00225463003337
C          163.08815961440749       -1.23374106963471        0.25592337787505
C          163.69500375724570       -2.48594377031939        0.53711269594106
C          162.69816280008649       -3.40439577128983        0.72497425396337
C          161.45296040106012       -2.73668000185038        0.56701482326183
N          161.73984411839572       -1.42921307335755        0.28519477396044
C          160.18737857556852       -3.30185800752243        0.68333624523672
C          158.95429283653809       -2.68208357176553        0.55182380462291
C          157.69386831343797       -3.38519911404799        0.71081319938094
C          156.72065620055977       -2.46954816901223        0.52373305059631
C          157.38892258097729       -1.21144100700290        0.24836213618341
N          158.72651354428874       -1.36973308276095        0.27290372380700
H          155.67922587400892        2.65263610779229       -0.55890750005463
H          157.63144810859265        4.45037160326252       -0.93223613342755
H          159.38608071275817        0.69418318412923       -0.12132196572939
H          160.26472164324031        4.35607262627908       -0.91301870828196
H          162.83788104281379        4.42402187492399       -0.95921938625395
H          164.78588788853986        2.59380903665146       -0.58611498030603
H          164.75814117728504       -2.65343778669530        0.59287063785534
H          162.80583269983038       -4.45225453612009        0.95559733798995
H          161.05288667215140       -0.69983731389791        0.12389272807890
H          160.17398617097550       -4.36326152944333        0.91141825916405
H          157.59963717848419       -4.43559710675364        0.93775921950105
H          155.65173057639106       -2.60379742861698        0.56876411171971
C          167.76106597815374        0.00209885289017        0.00236822333457
C          168.40464305510372        1.24296519572666        0.17512000307779
C          167.79967207253824        2.51206043135459        0.37308943001731
C          168.79792835530318        3.43844390702116        0.50565080363403
C          170.04225781708897        2.75931496907331        0.39545419682552
N          169.75323043558075        1.43717640879433        0.19587907689077
C          171.30869455053593        3.32709242203860        0.48303887301087
C          172.54064073351461        2.69708846342018        0.39372312153207
C          173.80226461624730        3.40525804420189        0.51778035978840
C          174.77382727359887        2.47886485628096        0.38397825562079
N          172.76579262358251        1.37097605910778        0.18935718247942
C          174.10366457363321        1.20893651858030        0.17560108516182
C          174.78017611456397       -0.01503110310604       -0.00288692121435
C          174.13678497100531       -1.25535149552305       -0.17873808705184
C          174.74231157042334       -2.52308627473497       -0.38274194414843
C          173.74438765918623       -3.45059244172941       -0.51242961056484
C          172.50005291160858       -2.77313543126197       -0.39474251991791
N          172.78829913364478       -1.45124207363019       -0.19400314881759
C          171.23334015001632       -3.34210524669345       -0.47556773282765
C          170.00184487962051       -2.71255536916413       -0.38208751514959
C          168.74027951597932       -3.42158194228075       -0.49937683537461
C          167.76893672655680       -2.49437561138260       -0.36848835561357
C          168.43907590457823       -1.22320342232139       -0.16834069293145
N          169.77631298132769       -1.38518067121111       -0.18280207668107
H          166.73668159594592        2.68493883791243        0.41377399975679
H          168.69199659582492        4.49914655516803        0.66839039426392
H          170.43928038839891        0.69779932815370        0.08381487921148
H          171.32449139853225        4.40023242451595        0.64700642037614
H          173.89815594692371        4.46628756110022        0.68714404398132
H          175.84260444623251        2.61325188068989        0.42571955162685
H          175.80550129425856       -2.69432008382793       -0.42939129810674
H          173.85090844293944       -4.51076120567936       -0.67834407879933
H          172.10206211221606       -0.71258538380080       -0.07822329929263
H          171.21754796630393       -4.41542513546671       -0.63835544916673
H          168.64405674612564       -4.48354815679640       -0.66273233873222
H          166.69999337587569       -2.62926450338395       -0.40699458726140
