254
 energy: -465.817501835344 gnorm: 0.000889128909 xtb: 6.5.1 (b24c23e)
Ni          40.90507527923200       -0.17566364317036       -0.14144433339356
C           37.50113421337495       -0.13853598635480       -0.19750591888501
C           38.14109359237171        0.69183643071967        0.69805683880689
C           37.45087283678590        1.55700790134439        1.60500597201313
C           38.40093646741570        2.22060142766322        2.30567132624422
C           39.66580488113568        1.76089698486403        1.81983730693830
N           39.50229699561115        0.81916668580865        0.84227434638801
C           40.88777481530624        2.25271932431975        2.28014003485830
C           40.88182526338876        3.24596732287285        3.28407512858148
C           40.87750356584179        4.09769109154136        4.14806504739216
C           40.87104783221191        5.09057345901329        5.15474152816048
C           42.06215181215093        5.65563203795615        5.62493342031973
C           42.00072350339662        6.62349158752965        6.61168714839969
N           40.85744290590220        7.04923688761811        7.14283813734653
C           39.72080150189434        6.51678512059643        6.70125535290748
C           39.67288319850365        5.54425012232038        5.71839634714336
C           42.11480933624195        1.81167516366988        1.78471708501615
C           43.36877751790509        2.32915669709828        2.23222345418604
C           44.33027860695505        1.65888103980544        1.55171649838127
N           42.29762731020168        0.83760250144412        0.83635360798001
C           43.65657912000627        0.73437442779006        0.69682059848953
C           44.32965035510361       -0.16448606461668       -0.13437521053334
C           43.66626492579717       -1.07798361185796       -0.95723092548806
C           44.34925700648352       -2.01530658837653       -1.79042939905439
C           43.39445657099148       -2.71440562221225       -2.45118765367954
C           42.13529802330728       -2.19625501865286       -2.01911183192527
N           42.30837790536533       -1.19768449492402       -1.09466033175686
C           40.91342537106051       -2.64863637199774       -2.51746421040546
C           40.91918810140173       -3.67015058166330       -3.49269515413680
C           40.92757590951872       -4.54565647743409       -4.33258824163725
C           40.94550157213498       -5.56393453422304       -5.31349095956551
C           42.15030803396275       -6.12864485931128       -5.74818242815393
C           42.11617026658379       -7.12144609154279       -6.71111197249297
N           40.98673999905083       -7.57206946814657       -7.25135313880320
C           39.83726678220523       -7.04044270758463       -6.84329406302689
C           39.76212794303523       -6.04393547115940       -5.88636069935468
C           39.68764105924102       -2.12825309873773       -2.10078638310953
C           38.42938237041745       -2.57026803907596       -2.61915336603887
C           37.47251563531206       -1.86198650653726       -1.97365235435972
C           38.15182581797806       -0.99345792038783       -1.06166634358176
N           39.51361137603092       -1.15841181955956       -1.15298040675016
H           36.41755601332097       -0.12391098718115       -0.21806912059927
H           36.37778127389785        1.63192452242015        1.68027079260937
H           38.27649707067420        2.96005586934578        3.08042609529191
H           43.01538575884201        5.33791590257460        5.21998506489091
H           42.90917948631545        7.07922797601297        6.99493807375776
H           38.80657736107241        6.88689094939763        7.15632412163243
H           38.72474044322735        5.13747460783749        5.38800328177192
H           43.48213607316929        3.10500940569980        2.97204355885169
H           45.40104891324243        1.76606693573857        1.61460816902430
H           45.42110153863972       -2.11303651862429       -1.85084804415024
H           43.51564990665337       -3.50793391213357       -3.17076153414916
H           43.09292129233751       -5.79089402402183       -5.33463317278522
H           43.03583236794674       -7.57706988330423       -7.06680054334486
H           38.93504202937367       -7.43129453186604       -7.30495157492599
H           38.80414673498349       -5.63893398495484       -5.58331006335290
H           38.31359342964463       -3.32680172055129       -3.37861423585408
H           36.40125777081222       -1.91109491430277       -2.08685822618162
Ni          96.42427380163589       -0.23292720721090       -0.15892685012520
C           99.82642236139563       -0.31975833965481       -0.26522504165807
C           99.14273420363385       -1.48990297193121       -0.51897045290705
C           99.78715114159282       -2.73128815418371       -0.82097769933977
C           98.80278777769990       -3.63666582078027       -1.03372365098022
C           97.56300321034986       -2.94370017742038       -0.86064427571698
N           97.77550412577956       -1.63194481639882       -0.53906218095918
C           96.31710940392296       -3.54982443802716       -1.02513788075902
C           96.26877501386582       -4.91529123004076       -1.38259774667126
C           96.22041399949403       -6.08794940355528       -1.69002130645971
C           96.15348769054350       -7.45441143900643       -2.04733902095882
C           94.92222723592472       -8.08779226764501       -2.25312807126299
C           94.90715839260433       -9.42665439852202       -2.60123409823782
N           96.01291180140829      -10.15134572144985       -2.75183375149633
C           97.18722377336030       -9.55653401051382       -2.55792187189953
C           97.31162220336024       -8.22362436134365       -2.20814387694762
C           95.11435964127794       -2.86472203480216       -0.85192082333528
C           93.83562190229262       -3.47828284069025       -1.02198163384687
C           92.90940017086713       -2.52704277078931       -0.74978572247309
N           94.98122946642658       -1.54945608042453       -0.48572745245430
C           93.62913540179814       -1.33981656067619       -0.41541730405660
C           93.00202986232820       -0.14528281225830       -0.05230488792194
C           93.71042023278929        1.01469340637755        0.27052061878566
C           93.07413774011891        2.23651217489302        0.64686488249865
C           94.06265835493811        3.13938868856427        0.85795183008231
C           95.29534967396012        2.46193317500959        0.60880262023231
N           95.07309245708156        1.15519199078572        0.25559302624058
C           96.53970790939935        3.08509746985148        0.70164021238553
C           96.58760857465757        4.45222932449569        1.05260265667788
C           96.63356048944982        5.62623823709873        1.35514923288558
C           96.68997324192839        6.99589154818506        1.70176875075006
C           95.52878116931085        7.72052733312736        1.99421143802058
C           95.64045754577995        9.05848142930506        2.32843290815941
N           96.80525958210727        9.69903479122956        2.38651132529972
C           97.91374624069498        9.01707141798901        2.10964650184796
C           97.91111357318526        7.67706567534973        1.76551213936321
C           97.74040450213219        2.41593638316922        0.46126812471466
C           99.02221198135420        3.04494247115516        0.55425813793742
C           99.94419212739622        2.09041045536849        0.28469756847562
C           99.22001967640547        0.88335597698194        0.02770215424495
N           97.86562731708291        1.09488486158597        0.13214297498886
H          100.90942700016303       -0.34720712709239       -0.29883152506436
H          100.85570541658612       -2.87035975689876       -0.86186521758066
H           98.88827488128570       -4.68112051213120       -1.28738099359836
H           93.99752466939279       -7.53465901736980       -2.14085535740225
H           93.96609729957368       -9.94314236176630       -2.76716008595733
H           98.06897028741859      -10.17720816130211       -2.68900657286599
H           98.28845565136244       -7.77932354178440       -2.05991669375743
H           93.68282812815474       -4.50556503325134       -1.31091715001933
H           91.83454938512216       -2.60690097246339       -0.76757924194348
H           92.00788446627378        2.37018979323092        0.73218634640188
H           93.98092253005136        4.17283978375609        1.15367144464879
H           94.55950103860829        7.23802328719477        1.95888954894338
H           94.75611124496383        9.64494861950266        2.56049873312480
H           98.84676290050969        9.57036275126476        2.16639932614373
H           98.83768276186038        7.15972327085406        1.54769918094631
H           99.17648508561210        4.08382552029228        0.79803799825551
H          101.01888692248163        2.17502977988004        0.25876797081123
C           45.73526644164580       -0.15475422555451       -0.13369942312694
C           46.95903908570369       -0.14314531425294       -0.12489718963543
C           48.30255645037715       -0.13214931112782       -0.11716002774354
C           49.53263911888616       -0.12340616408613       -0.10851713224004
C           50.87130684753001       -0.12906224862657       -0.10469960076059
C           52.10140067559205       -0.14261416413978       -0.10674698892288
C           53.44407945838117       -0.17965496880542       -0.12718943496756
C           54.66666602468234       -0.23287192021282       -0.15796676290449
C           64.22199576915116        0.23382148308037        0.20365102622379
C           65.43361877092327        0.37771476031024        0.30645704170361
C           66.76948661521314        0.48307989372824        0.38830784361765
C           67.99869889976824        0.53543083009542        0.42216664625595
C           69.33653172303339        0.53657178888469        0.42802023367072
C           70.56613870280846        0.49377342519363        0.39601912620175
C           71.90283666761991        0.38969627207034        0.32745483346532
C           73.11550823700740        0.25173178013812        0.22900971657384
C           82.66852636008238       -0.16718090765476       -0.05287269009437
C           83.89010976074441       -0.10412804773938       -0.00502843017928
C           85.23219410908979       -0.05845200057792        0.02868337965469
C           86.46227205610357       -0.04415116891759        0.04487095167919
C           87.80094261475398       -0.04050370052345        0.04422658791857
C           89.03095329112166       -0.05554100860074        0.03421388889099
C           90.37415986970264       -0.07954457703422        0.01299196030697
C           91.59741860992244       -0.10891693716455       -0.01412165878165
Ni          59.47671349956191       -0.42821235661693       -0.27994190523163
C           56.06761622455381       -0.31704593231170       -0.21264117931578
C           56.73795754019073        0.31580534410650       -1.26461356546730
C           56.06762555700156        0.96385718323386       -2.34598719055564
C           57.02484896728460        1.32221355653456       -3.23788432039016
C           58.27631330324009        0.92667948964974       -2.67578272940322
N           58.09240984669897        0.30838424551476       -1.46638992538442
C           59.51045882275103        1.21216279507422       -3.26310328649412
C           59.52950243938300        1.79902982598282       -4.54689511847145
C           59.54724874092285        2.28726492471231       -5.65747294905252
C           59.56814366271754        2.85923119576552       -6.95041449133036
C           60.77404500308013        3.08406309146657       -7.62467422666096
C           60.74006096149444        3.64549394213332       -8.88875792859589
N           59.61005248100239        3.98779649574772       -9.50229440322347
C           58.45957026911405        3.77796138893757       -8.86753677136866
C           58.38404822014628        3.22124801437239       -7.60313158873111
C           60.72233706843907        1.01539751310070       -2.59887497400233
C           61.97478101332880        1.49968080507314       -3.08431393055441
C           62.89228470263338        1.23933670314832       -2.11965358575266
N           60.87104067647654        0.43390979764826       -1.36608520023374
C           62.20134681358266        0.56191991829452       -1.06980375346036
C           62.84211988671633        0.02555348914892        0.05254695840266
C           62.18709449370650       -0.81946307224320        0.95495870592330
C           62.86368491636076       -1.55157179092901        1.97714638280836
C           61.94330396001008       -2.37362842860374        2.54049455721239
C           60.70241367530066       -2.10763628092152        1.88626209710188
N           60.85991534052327       -1.15351556166991        0.91464742154156
C           59.49240843040842       -2.69635802579408        2.25854657425811
C           59.51013786199262       -3.72135065161573        3.22891208505582
C           59.53234486383910       -4.62077656879487        4.04296880982258
C           59.56251290807503       -5.67083477237215        4.98929606914535
C           58.38577396776233       -6.29097639623850        5.42484665465329
C           58.47208290883663       -7.31797643887228        6.34797225558919
N           59.62637818902594       -7.75108567192789        6.84837954952795
C           60.74947218912325       -7.16611737552688        6.43984876605428
C           60.77241615583301       -6.13181425787517        5.52124213891890
C           58.26154218045038       -2.25980061058365        1.76500598036194
C           57.00490708778199       -2.68362937150861        2.29412540120797
C           56.05115359225575       -1.95758598514989        1.65889983958150
C           56.72936124188217       -1.12603222875657        0.71703040660259
N           58.08407387910901       -1.30984387000080        0.79276095801702
H           55.00028163399935        1.10024187865197       -2.41129810558394
H           56.91006744041334        1.82626783832709       -4.18392951103319
H           61.71709837115253        2.82007768031727       -7.16143729379352
H           61.66033702032711        3.82992146373026       -9.43561559996826
H           57.55696191538853        4.06944146745368       -9.39691211717694
H           57.42546578436401        3.06763738703571       -7.12227772107304
H           62.11511331364787        1.99284606035643       -4.03264012973605
H           63.94692922514452        1.46248125423596       -2.11461699946540
H           63.91225597870680       -1.45489979410734        2.20790911676805
H           62.07436863889730       -3.08476141811013        3.34009310368604
H           57.42444924541825       -5.96980526366969        5.04243870588996
H           57.57535109840624       -7.81760162335265        6.70303764490387
H           61.67321066945001       -7.54432948361770        6.86822520328201
H           61.71014894984715       -5.68386308041334        5.21534396985723
H           56.88455068526419       -3.42479834357976        3.06771684287590
H           54.98172754210535       -1.98654980984761        1.79158225530317
Ni          77.86343925987264       -0.40176932044995       -0.22826239883699
C           74.49657073907325        0.04657214455088        0.08495144138774
C           75.14893080946342        0.61343493715270       -1.01548695808694
C           74.46921737427419        1.32273527051770       -2.05154826247480
C           75.39022012581368        1.58393057279141       -3.01274722826656
C           76.63435976004330        1.06881836309174       -2.53801676065536
N           76.47781858360722        0.47302603334096       -1.31337091063991
C           77.84606211423028        1.23485774856422       -3.21162078087132
C           77.82898154894467        1.81373107921733       -4.49896486914802
C           77.80691349949426        2.29266225723101       -5.61353182158244
C           77.77679735008881        2.85343712073422       -6.91114149183515
C           78.94484038332166        2.99529851223675       -7.66917754455164
C           78.85896760954097        3.54803910878845       -8.93466561953995
N           77.71316834510935        3.95692500429181       -9.47354173275815
C           76.59840732071834        3.82602783492300       -8.75892538933452
C           76.57564593024978        3.28546359742810       -7.48556183026963
C           79.07722966245787        0.92715099545895       -2.62945045735748
C           80.33329044170070        1.29928798854447       -3.19736767542698
C           81.28531272065939        0.95547618691104       -2.29408569756512
N           79.25419820404952        0.32999641744169       -1.40827542999779
C           80.60745307675190        0.33691096094696       -1.20025019118327
C           81.26937956746781       -0.26514127218984       -0.12476804425304
C           80.60225031180080       -1.06205871297352        0.81163081019218
C           81.27506173259127       -1.87044784874546        1.77731811091206
C           80.32175855250259       -2.61075509249128        2.39673879998126
C           79.06939797079384       -2.21751121728888        1.83510161167930
N           79.24965422455828       -1.26944483858527        0.86181165081212
C           77.83654175560602       -2.68649394852463        2.29312945924384
C           77.81712919821386       -3.71966146919818        3.25467493725875
C           77.79296149808891       -4.62581325983190        4.06118227922004
C           77.75835579982574       -5.68302706175669        4.99932745501009
C           76.54392187656316       -6.16615448197830        5.50045819526304
C           76.56192111037338       -7.20614646963994        6.41269592298830
N           77.68435575493766       -7.77661167918824        6.84298120221176
C           78.84288201746625       -7.32252093594409        6.37182959873044
C           78.93431962676671       -6.28801571782878        5.45759745152149
C           76.62358006414901       -2.12041844796685        1.89615755879424
C           75.37302878985297       -2.41914871173809        2.51711078940574
C           74.45375015019654       -1.59407651974964        1.95626377953048
C           75.14128481874147       -0.82726365045162        0.96744368024855
N           76.47200895936381       -1.14746361880170        0.94225938567533
H           73.41844610114750        1.56333371795248       -2.04162739187556
H           75.25722821264156        2.09554594663790       -3.95232590061451
H           79.89909135563924        2.67514006839473       -7.26861011769461
H           79.74897348871754        3.66914220038002       -9.54549630441318
H           75.68152279016225        4.17011437674780       -9.22882161038321
H           75.64486064381228        3.19695487706351       -6.93832795565992
H           80.45426948317457        1.78151474980350       -4.15396788493537
H           82.35371146252159        1.08373644804670       -2.35885631653125
H           82.34157526256348       -1.87709686510673        1.93423926433129
H           80.43934282368429       -3.34335056448362        3.17888670645226
H           75.60660890719841       -5.73046239473478        5.17611308548113
H           75.63463323051970       -7.60126287573932        6.81748411526355
H           79.73890499000963       -7.81081052640837        6.74403280940574
H           79.89902250228083       -5.94958453453653        5.09937107545234
H           75.23503912210890       -3.15155476638940        3.29607133294797
H           73.39975808403153       -1.51586077408510        2.16858650767336
