114
 energy: -193.883740672444 gnorm: 0.000313159709 xtb: 6.5.1 (b24c23e)
C           14.94658722694832       -0.01175028196377       -0.00943511545668
C           15.55509822479339       -1.25812442418820       -0.08411943996128
C           14.92813069538270       -2.53475461628890       -0.16319834729194
C           15.91096229985300       -3.48237061670452       -0.22237330364455
C           17.16896606423572       -2.81472973917742       -0.18158839742006
N           16.90300133881254       -1.47882960720358       -0.09712398817292
C           18.43088729696242       -3.39494579859748       -0.22557883861223
C           19.66176505829162       -2.75518400603035       -0.19107066039932
C           20.92324246208112       -3.47013443366503       -0.25929895028670
C           21.89329783769689       -2.53487760238661       -0.20069417457633
N           19.88648911899939       -1.41634085305032       -0.09354877093154
C           21.22438459374005       -1.25206572588863       -0.09270462041600
C           21.90591199985796       -0.01976625953297        0.00124780242699
C           21.26657114677115        1.23247237914835        0.09378418423919
C           21.88109626920599        2.50834411686535        0.19979720351646
C           20.89319225244154        3.45199872092097        0.25836947890569
C           19.64221532072204        2.77857322409619        0.19244654735223
N           19.91956494042810        1.44158172238927        0.09534288128058
C           18.38266076887649        3.36495357221974        0.22194204045534
C           17.14978852803972        2.72782647688830        0.17005524434342
C           15.87898442981745        3.43526165119081        0.20941662074112
C           14.91623334292262        2.49368572482533        0.14520879811945
C           15.59991134114191        1.21264437556213        0.06692368988978
N           16.94192187840425        1.39318727140722        0.08303248228082
H           13.86190627663201       -0.00241305227985       -0.01103135942006
H           13.86126429654126       -2.69203197552069       -0.17303290081953
H           15.78963031212304       -4.55195874170201       -0.28905146530707
H           17.60314562921610       -0.74605664239672       -0.05165726981384
H           18.44725891996497       -4.47783058631488       -0.29893808121052
H           21.02034329239196       -4.54124329357802       -0.34245595534977
H           22.96121444933280       -2.67308753068261       -0.22974312463238
H           22.94488722943289        2.67472002491026        0.23029463017895
H           21.00967903129634        4.52080770619622        0.34113382040588
H           19.22393235877544        0.70523201897966        0.03403493357283
H           18.37241740497612        4.44771359303969        0.29702011304689
H           15.77448212751836        4.50696241293288        0.27743373891542
H           13.84468434725330        2.61921057202276        0.14884191303639
C           43.97097441976439        0.02592654610916       -0.00175048420868
C           43.35999209043064        1.25212648709054       -0.23083458282036
C           43.98547513568463        2.51066713402319       -0.46348414714483
C           43.00169632348802        3.44089906524117       -0.64858240010510
C           41.74450537927254        2.78028527511776       -0.53482847695335
N           42.01189676264143        1.46631646258966       -0.28031810824824
C           40.48185723921549        3.34537704208595       -0.66728037933644
C           39.25328361571898        2.70886575947959       -0.56242389870963
C           37.98848797472412        3.39830115218577       -0.74262348585756
C           37.02291046485355        2.47318868888895       -0.56578862757102
N           39.03536316070323        1.39456031341965       -0.28432393778164
C           37.69869066891123        1.22292244498180       -0.27273906278474
C           37.02297350647621        0.01194955515193       -0.01286405941250
C           37.66283647414986       -1.21519116629244        0.24925464834838
C           37.04815696283723       -2.46409126457950        0.53205514962251
C           38.03666685073065       -3.39156569985137        0.71337501298405
C           39.28742699474945       -2.73398862534969        0.55100587181041
N           39.00968236184102       -1.42240037944572        0.27477542253317
C           40.54833088489368       -3.30944137882376        0.65160454973410
C           41.77861303210971       -2.68001098726926        0.51335712012956
C           43.05243469527374       -3.37186301556445        0.63815223928850
C           44.01107569755722       -2.44149342197199        0.45653425358907
C           43.32191717754231       -1.18270815785622        0.22140906755987
N           41.98071568062385       -1.36571761319471        0.26009373102242
H           45.05571316953255        0.02022911949044        0.00179532068110
H           45.05213629073221        2.66826758584100       -0.48451034318537
H           43.12186717948261        4.49405728824049       -0.84757472672688
H           41.31202982698359        0.74367983977444       -0.14925260874220
H           40.46306882851355        4.40917541414324       -0.88217352796120
H           37.88644089527941        4.44664110465996       -0.97545572288801
H           35.95434620423989        2.59702477480004       -0.62862657988576
H           35.98415121615158       -2.62312474909577        0.59213245647945
H           37.92083262849152       -4.43904203785101        0.94182325487181
H           39.70554356293936       -0.70175755309947        0.11278633796414
H           40.56236308406228       -4.37312101339687        0.86705018719708
H           43.16160240061942       -4.42650602403173        0.83790226527050
H           45.08315731682551       -2.56122507557216        0.47396044481258
C           23.31428418197933       -0.02371379035394        0.00376920411375
C           24.53294475125385       -0.01917852729298        0.00740050852224
C           34.39683198209573        0.01303779884521       -0.00513966755610
C           35.61495903649533        0.01356322581875       -0.01081002838006
C           25.94040733348639       -0.01183402348579        0.01075501157566
C           26.58406713359987        1.24136549252917       -0.03389614628164
C           25.98207113280301        2.52519761248029       -0.08967066683989
C           26.98037358057302        3.46090925788952       -0.09578962902505
C           28.22336665685150        2.77303431902425       -0.04810634682010
N           27.93305485074431        1.43667179228114       -0.01703843409397
C           29.48761208545817        3.35240970564090       -0.02367223832301
C           30.72382698450370        2.72633961947359        0.01065705118220
C           31.97755710477120        3.45739315237744        0.05355384654385
C           32.95799286802495        2.53087172800051        0.06318606736442
N           30.96299904815345        1.38691409052214       -0.00172363441370
C           32.30220623528961        1.23783343960435        0.02088105614678
C           32.98981244945602        0.00622393365983       -0.00006720322122
C           32.34773559780372       -1.24790032051094       -0.01364464306243
C           32.95130456103134       -2.53197076191470       -0.04762310218251
C           31.95341742028933       -3.46816730490108       -0.02895753472308
C           30.71002787841335       -2.78027609021181        0.01179366814887
N           30.99922954526394       -1.44350651802862        0.01464249419373
C           29.44543664983323       -3.35772437708817        0.05286946700606
C           28.20981800586754       -2.72988638149900        0.07730686812875
C           26.95681206121515       -3.46074297767775        0.13565965163184
C           25.97603798494110       -2.53477539324895        0.12645614602641
C           26.62999840610246       -1.24220175278421        0.05864308154378
N           27.96948230236002       -1.39092540888805        0.03854935683471
H           24.92033042596823        2.70366310456843       -0.12264448922851
H           26.87485640284866        4.53349015019899       -0.13108209115390
H           28.61679785394800        0.68726705521381        0.01699259095448
H           29.49677427299413        4.43815042093304       -0.03234849667218
H           32.06269612240779        4.53252042231253        0.07596744954109
H           34.02435015754096        2.68107116481341        0.10160020201221
H           34.01336144998574       -2.70955567304671       -0.08569148556570
H           32.05936166838350       -4.54118620291760       -0.04383766384988
H           30.31507347694421       -0.69406366494491        0.03618387285094
H           29.43490661591365       -4.44339609943392        0.06665504650828
H           26.87221342162099       -4.53525660254011        0.17912958890790
H           24.91014403282270       -2.68556128102510        0.16542273893365
