254
 energy: -461.241201018187 gnorm: 0.000532687612 xtb: 6.5.1 (b24c23e)
Fe          40.92257541974196       -0.18797639134621       -0.09378208745620
C           37.51963026126908       -0.15989058255102       -0.18439177603216
C           38.14637612031301        0.68671579123302        0.70561670840400
C           37.44372214513811        1.54773689914731        1.60850598145814
C           38.38481113811684        2.22297637586772        2.31034774985664
C           39.65641002587840        1.77319836710600        1.82988096557542
N           39.50278439608574        0.83664329821783        0.85015214622500
C           40.87444227205263        2.26575832105486        2.30297548699515
C           40.85705964685598        3.25755455939487        3.30755533560400
C           40.84803721220953        4.11154135478797        4.16963267654068
C           40.84411594097080        5.10810530778231        5.17240843815756
C           42.03917196353101        5.65865206166670        5.65028927323844
C           41.98313887158611        6.63249400536226        6.63133172477285
N           40.84138478800012        7.07732891476392        7.15007610620582
C           39.70110029643708        6.55866973033211        6.70145746992235
C           39.64768609959880        5.58157648514890        5.72336785948421
C           42.10933079657189        1.82539762259907        1.82659285467664
C           43.35871536582842        2.33085826596961        2.30380676942762
C           44.32860102221893        1.66640203256312        1.62965023608595
N           42.30707651349682        0.87040692339255        0.86550542620343
C           43.66410172665901        0.75929726683482        0.74725994870281
C           44.34564395699061       -0.11703047212521       -0.10227006507307
C           43.69632952021342       -1.01577202819700       -0.95392682856892
C           44.39316996624061       -1.92994224531292       -1.80349643485744
C           43.44793276354912       -2.63097891866914       -2.47579163398343
C           42.18112519771783       -2.13740258810721       -2.03353992518872
N           42.34411419985063       -1.14666663468767       -1.10252966907445
C           40.96331120622071       -2.60901259443820       -2.52345164460273
C           40.97728697935455       -3.62847728746111       -3.50004428477826
C           40.98219401187207       -4.50438579240045       -4.33989817667895
C           40.98235542765769       -5.52706812915658       -5.31607808838514
C           42.17683555020449       -6.09166522952333       -5.77831457277131
C           42.11998208531373       -7.08921562662569       -6.73533632135658
N           40.97814014667192       -7.54438797481951       -7.24476125208189
C           39.83822899652147       -7.01259293414304       -6.81074119077448
C           39.78566164548724       -6.01171172798631       -5.85709289227591
C           39.72841037085097       -2.11836426960062       -2.09352898875804
C           38.47451131862012       -2.58894660014098       -2.60004305294920
C           37.50882145185160       -1.89756234050281       -1.94931046789106
C           38.17866976262859       -1.01118864794506       -1.04603201227298
N           39.54003227003639       -1.14787802258782       -1.15371221516129
H           36.43549189853657       -0.16265555035068       -0.20184600669266
H           36.36965728892436        1.61049702863032        1.68205004256120
H           38.24991556476873        2.96160953048859        3.08422486215801
H           42.99115047813771        5.32514321680124        5.25519677971958
H           42.89463713145295        7.07735717215142        7.02008940533244
H           38.78846113455849        6.94440903855703        7.14659649936179
H           38.69670458536901        5.18669160141213        5.38687766335930
H           43.46369539907007        3.09335703003034        3.05869889047181
H           45.39866091918871        1.76720536903208        1.71330985661744
H           45.46622694526813       -2.01391246257845       -1.86440796321736
H           43.58019328320815       -3.41249553014216       -3.20659743584243
H           43.12905656344896       -5.75058125993156       -5.39041487382570
H           43.03105099498512       -7.54532284745896       -7.11187962474758
H           38.92537044036334       -7.40715261256868       -7.24763145911800
H           38.83509154142252       -5.60651303784499       -5.53181367370871
H           38.36702615263472       -3.35097310947269       -3.35529159490747
H           36.43787067521403       -1.96990656894690       -2.05312904992351
Fe          96.40199819829867       -0.22534127366106       -0.11355279113878
C           99.80099927308932       -0.33093341293201       -0.24243723103092
C           99.11056859068934       -1.48638498334585       -0.54204051723168
C           99.74670881133619       -2.72202818790011       -0.88669633838365
C           98.75628734581430       -3.62163192861318       -1.09628482821248
C           97.52136253495199       -2.93105216213487       -0.87662196660156
N           97.74532321941918       -1.62635310474858       -0.54866110073986
C           96.27010225210140       -3.54344868675504       -0.97850601324250
C           96.21803383460673       -4.91058559427363       -1.32701948488634
C           96.17754150783279       -6.08430833780216       -1.63249083201458
C           96.13404155894710       -7.45131196331618       -1.99059108910652
C           94.91634025039222       -8.12265663542343       -2.15116476351890
C           94.93031053344359       -9.46018642459120       -2.50475951581246
N           96.05165689151150      -10.14893291107505       -2.70154344889842
C           97.21340622697089       -9.51803535797222       -2.55033185748729
C           97.30889257171943       -8.18319246102157       -2.19950700579612
C           95.07222370993479       -2.86778026309303       -0.74712821457008
C           93.78999537134789       -3.49512523762446       -0.82681829220652
C           92.87173468888869       -2.53618954148759       -0.55449319628973
N           94.94478042241083       -1.54151687052168       -0.43090685409135
C           93.60006978481304       -1.33004496232693       -0.31365865183534
C           92.98219664335855       -0.10653212702401       -0.03483701434748
C           93.69429014039578        1.07414608161356        0.19765168705083
C           93.06216843142623        2.32307626707987        0.48683251728015
C           94.05596442447907        3.22319656518747        0.68430878645306
C           95.28732759657531        2.51683730375236        0.51360401971242
N           95.05450886474723        1.20327578407506        0.20477182398508
C           96.53885780929782        3.11437630211789        0.66174124276824
C           96.59486972364508        4.48299182004386        1.00363103634974
C           96.64096688751236        5.65834009428406        1.30194501898903
C           96.69005378675156        7.02717292507558        1.65212630329823
C           95.51883360633494        7.75886374710229        1.88105477693541
C           95.61995383570213        9.09545535041134        2.22354057554728
N           96.78380303463113        9.72844298300981        2.34737630668512
C           97.90170697298448        9.03999124245055        2.13094486161305
C           97.91001731695199        7.70051916748371        1.78463738220637
C           97.73883627306432        2.41965897349034        0.49378781163105
C           99.02745414068173        3.02395365599316        0.65002501221096
C           99.94241666038140        2.05805244347460        0.39679317686965
C           99.20694567227663        0.86903970781572        0.08760056286030
N           97.85652577110845        1.10504238259952        0.15033147291421
H          100.88433621752056       -0.36840525801875       -0.26833633303129
H          100.81388482081934       -2.86278706608135       -0.95206526616138
H           98.83529461816761       -4.66130549311745       -1.37102111482606
H           93.97958361093390       -7.59976533742162       -2.00081198596237
H           94.00043760970317      -10.00586197917522       -2.63681781114446
H           98.10855745579454      -10.10992041789020       -2.71837549287166
H           98.27605125544517       -7.70826700488479       -2.08715819385022
H           93.62985135292158       -4.53538435454559       -1.06037050426704
H           91.79770322943995       -2.62173305733807       -0.51840483463830
H           91.99572314540701        2.47409891382513        0.53295098065793
H           93.97854281485766        4.27083111426520        0.92675479564788
H           94.55015344006932        7.28225836979813        1.79121069086307
H           94.72776249481339        9.68707906036244        2.40748257906285
H           98.83342330804923        9.58750186500763        2.24044149682907
H           98.84407110531167        7.17782019283480        1.61769616995233
H           99.19081903460261        4.05544177704324        0.91833425238811
H          101.01867286788151        2.12429988765408        0.41248986487168
C           45.74967193799166       -0.10174966585237       -0.09163084115212
C           46.97431242148376       -0.08957113379709       -0.08177137330338
C           48.31645811849305       -0.08511627960873       -0.07601462282417
C           49.54746229002839       -0.08934093102420       -0.07328269040146
C           50.88449232089717       -0.10806186852091       -0.08152245017542
C           52.11521169888018       -0.13831948640450       -0.09705809466966
C           53.45538153551084       -0.19354409525088       -0.12940391091284
C           54.67784192235719       -0.26176595063557       -0.17311935638773
C           64.22214264114589        0.18009749387078        0.16429767883732
C           65.43654588264597        0.32068020665217        0.26765666634259
C           66.76847868306061        0.42516320330394        0.34787128223704
C           68.00010236769205        0.47469874212529        0.38675959433234
C           69.33375121665473        0.47683146842117        0.39245234417698
C           70.56584460986394        0.43213594873215        0.36367532256647
C           71.89864983368464        0.33057740222328        0.29534932329985
C           73.11411856655013        0.19381717340409        0.19932950140376
C           82.65498047059702       -0.19918219413766       -0.06707082136975
C           83.87704825681779       -0.12593778242598       -0.01027293910079
C           85.21592358195070       -0.06556305385373        0.03323557277984
C           86.44693132190579       -0.03181612122406        0.05510823189303
C           87.78322453215610       -0.01585824364045        0.06478410302899
C           89.01466955612422       -0.01943461832934        0.05886413523203
C           90.35582014687523       -0.03742115785194        0.03888900572779
C           91.58019189894620       -0.06326479700534        0.00754500306839
Fe          59.48157444557526       -0.46987838645848       -0.31082248310319
C           56.07586086042777       -0.35502664570276       -0.23616615062803
C           56.74072828892024        0.26946070804606       -1.29857333462449
C           56.06591986586593        0.90911054859919       -2.38386879945302
C           57.02176646673725        1.26680957035546       -3.27755236396102
C           58.27547005378008        0.87923098339735       -2.71129054907878
N           58.09073934782210        0.26459409490953       -1.50445948242948
C           59.51187640244176        1.18427720499811       -3.28771555890222
C           59.52890155322324        1.78518620314568       -4.56438434095146
C           59.54466339938681        2.28514034162663       -5.67009845372893
C           59.56325807349428        2.86937658601619       -6.95735008539693
C           60.76971507903581        3.18074310663054       -7.59513800074885
C           60.73321218586055        3.74998617357800       -8.85566281819509
N           59.60021806737557        4.02009937570043       -9.49878005076862
C           58.44913896304855        3.72767491238716       -8.89898566560676
C           58.37602394204846        3.15662186079671       -7.64086710683116
C           60.72508066165302        0.99826225949711       -2.62240402897918
C           61.97455579639298        1.50505462457219       -3.09700980650018
C           62.89157009110777        1.23950888058397       -2.13340354311288
N           60.87950869184824        0.40262384676987       -1.40023471553578
C           62.20242405054386        0.53710459557285       -1.09673125168887
C           62.84613256265696       -0.02409427663387        0.01520122966750
C           62.19693939525517       -0.88864657092654        0.90779185433458
C           62.88051477570328       -1.63868792110953        1.91434192850428
C           61.96038210831167       -2.46255974519121        2.47519811388093
C           60.71446989970123       -2.17984741063239        1.83409503563296
N           60.87398940056049       -1.21888514109506        0.87322415116293
C           59.49972398717062       -2.75158544788385        2.21730276624785
C           59.51285809445880       -3.76395920672720        3.20027590698287
C           59.52730966646419       -4.64592756012828        4.03378205951832
C           59.54498012665076       -5.67035461884066        5.00792729758424
C           58.36075129455737       -6.26945865217403        5.45276756222641
C           58.43323192830554       -7.26751989687579        6.40825902349432
N           59.58092078140633       -7.69127648617727        6.93123812718265
C           60.71106136320054       -7.12681762756795        6.51360247276024
C           60.74792341283225       -6.12214628603293        5.56304719443676
C           58.26569072567870       -2.30691987450428        1.73427524450233
C           57.00926154679136       -2.71923752622191        2.27657442659235
C           56.05668733033770       -1.98554430309112        1.64841779578390
C           56.73622329263661       -1.16153447282231        0.69885992506908
N           58.08569818771963       -1.35995086630688        0.76504495292576
H           54.99812475206641        1.04187823990950       -2.44988590209217
H           56.90446709680374        1.76593974870849       -4.22593107341586
H           61.71494895567027        2.97708502505973       -7.10673391050257
H           61.65363810238161        4.00136105830864       -9.37465158309358
H           57.54432596282017        3.96166023244751       -9.45240106246438
H           57.41713326072953        2.93427121072859       -7.18859968536334
H           62.11328321717504        2.01420082067664       -4.03715264150656
H           63.94364294217135        1.47446196820952       -2.12137250604443
H           63.93139738768066       -1.55065175207058        2.13815999389610
H           62.09488752873285       -3.18482590514470        3.26423654196833
H           57.40464450680884       -5.95412001810454        5.05292226468985
H           57.53070771482145       -7.75013305708384        6.77190781933288
H           61.62876249746454       -7.49688909104554        6.96149597649976
H           61.69075284225869       -5.68949089121379        5.25098897981185
H           56.88808291949916       -3.45892262738955        3.05149562882678
H           54.98820575500807       -2.00523442054125        1.79034834259229
Fe          77.85702036147407       -0.44091408315140       -0.25745138973209
C           74.49131674981672       -0.00585400336630        0.05603317139837
C           75.13638778492326        0.55365090934668       -1.05628273949742
C           74.44849609731519        1.24471412256090       -2.10127427493833
C           75.37105772149793        1.51818778211128       -3.05752487686527
C           76.62232936022352        1.02922533498324       -2.56926133503077
N           76.46292908734029        0.43243905456695       -1.34835642294577
C           77.84188433427653        1.24210995341001       -3.21520965512374
C           77.83211920372673        1.84359306238609       -4.49153225783659
C           77.82046888568249        2.33731438033153       -5.60012018243515
C           77.80588857595491        2.91261039951722       -6.89144271628074
C           78.99209589904693        3.13491234638635       -7.60043203346193
C           78.92223852554504        3.69726680084584       -8.86267305782243
N           77.77536858405318        4.04161807105702       -9.44261589436274
C           76.64341281001984        3.83421154721551       -8.77487189189639
C           76.60382796626629        3.27778096648673       -7.50873434025979
C           79.07470669717954        0.96361588731960       -2.61789898986699
C           80.32863659501311        1.39491275842602       -3.15087930717514
C           81.27599189441857        1.04308821502209       -2.24569875008238
N           79.25181203418263        0.33115824564313       -1.41926701197827
C           80.59740234844773        0.36063443560648       -1.18904667192707
C           81.25947032452186       -0.30221599445348       -0.14770089841360
C           80.59833899129394       -1.15797250564903        0.74304451634255
C           81.27572014727721       -2.01894940314140        1.66061826787260
C           80.32048886559996       -2.76787874864792        2.26659639224067
C           79.06484337010609       -2.32873984634521        1.74374940202914
N           79.24882473372435       -1.35355268066733        0.80314005646222
C           77.82921682990883       -2.76729645219707        2.22769799289224
C           77.81110190785625       -3.79462560631462        3.19492153432140
C           77.79259502719718       -4.68703241282065        4.01716656405506
C           77.77120278601967       -5.72272544547517        4.97925966913122
C           76.56593461725672       -6.18417197929388        5.52120651748523
C           76.59950987320617       -7.19911111025276        6.46093180571276
N           77.72859119648244       -7.76443334336449        6.88023851289161
C           78.87848633220973       -7.33142233464901        6.36987522677631
C           78.95428624740586       -6.32296518648244        5.42561548773196
C           76.61815523718080       -2.17466606004706        1.86340391364991
C           75.37357253155160       -2.45138436343426        2.50947239028542
C           74.45663012740589       -1.61768445980456        1.95769484896908
C           75.14056090520509       -0.86747696362309        0.95154438401963
N           76.46175522096615       -1.20481559944107        0.91146450995536
H           73.39375938802242        1.46770084135947       -2.09944323472366
H           75.23492240033080        2.02372459825393       -3.99999055649581
H           79.94757459787948        2.86866245248745       -7.16499033458887
H           79.82625154621074        3.88031248916166       -9.43620761942831
H           75.72648049024740        4.12711131619277       -9.27802568933361
H           75.65959352176566        3.12559835207104       -7.00006164539818
H           80.45131042429503        1.91668798944973       -4.08631326394606
H           82.34121169528061        1.20324954905917       -2.28844199016219
H           82.34440575866641       -2.04934149161133        1.79911959279265
H           80.43957391093308       -3.53389747943020        3.01583047365314
H           75.62390000051214       -5.75104050480211        5.20743072392349
H           75.67996896373184       -7.57699444625228        6.89838905485023
H           79.78005678840911       -7.81492805633844        6.73469105828366
H           79.91209422921850       -6.00016449612040        5.03592276033331
H           75.23739127316061       -3.17756723371649        3.29462066123886
H           73.40734940055792       -1.52386346079876        2.18663066288368
