152
 energy: -236.382695001770 gnorm: 0.000411329498 xtb: 6.5.1 (b24c23e)
C           13.48030566991379        0.02218569806473        0.12528677162134
C           14.08606448086248       -0.13931539347056        1.36513941802986
C           13.43045753317137       -0.24427387647975        2.62327338392373
C           14.38827143612295       -0.40536025776981        3.58541750471001
C           15.65931242850291       -0.41507868409195        2.94459174899539
N           15.42669630739636       -0.24026676977417        1.60954522240217
C           16.91888995307048       -0.55470094321983        3.54146268816429
C           16.94278909383713       -0.77515342294144        5.00519709077098
C           17.61947291272532        0.10224952048018        5.85438863750728
C           17.63614883935598       -0.09422965973354        7.22315406308826
C           16.97688043608336       -1.18861415924840        7.80302093862876
N           17.03776735963522       -1.42404564296384        9.17358322789430
C           17.40684017361915       -0.29930192072953       10.03378889263199
C           16.01724583990908       -2.30172736478268        9.74830304447665
C           16.31218462461235       -2.07871213091856        6.94596948046823
C           16.29133042781292       -1.86826759508976        5.57923537354728
C           18.13516985321716       -0.50056916958643        2.85513459137430
C           19.42836602203894       -0.71427143159637        3.47872554448271
C           20.35147396357197       -0.57318381065299        2.50443025853826
N           18.29368369125378       -0.26121236033289        1.52370771798263
C           19.62037363856383       -0.28799237941131        1.28573679459278
C           20.26139379885112       -0.07286944334606        0.04817370269516
C           19.63000002057317        0.14536405231577       -1.19176425822402
C           20.28048114102651        0.38908917364960       -2.42967239043062
C           19.31799485102693        0.53357614637799       -3.39084861379535
C           18.04909770222389        0.37316841318163       -2.76953271577475
N           18.28983476624425        0.15012519729541       -1.43893849754575
C           16.79004137444997        0.45277776319925       -3.37641407084133
C           16.76555471300492        0.65900472547808       -4.84131788347725
C           16.11803019503763        1.76086463059908       -5.40323429123480
C           16.10039817840179        1.96190023039976       -6.77138860178774
C           16.72881902252711        1.05819162970130       -7.64141762491179
N           16.66575216406588        1.22046294696303       -9.02209528089264
C           17.67671730624267        0.52940489250359       -9.82407460487710
C           16.30554344422780        2.54386234518082       -9.53076811659484
C           17.36506173324031       -0.05721439788354       -7.07550550118369
C           17.38743856562446       -0.24428970315519       -5.70569749304785
C           15.57138103238382        0.35226454588271       -2.69437167462179
C           14.26799832023551        0.37692544610305       -3.33894309862649
C           13.35211304764360        0.26366918207029       -2.35536870185656
C           14.09487632867673        0.15409424806855       -1.11294356228847
N           15.42807811817566        0.20178449062943       -1.35645802856028
H           12.39502253494815        0.04317900563257        0.13511575711754
H           12.36214527823499       -0.19405618774625        2.76210955339138
H           14.23305874443110       -0.49807455068610        4.64813112735243
H           16.15497358727072       -0.18684041812145        0.90525777197072
H           18.12220420211413        0.96786310336181        5.43678107455605
H           18.17302642538467        0.61907693488959        7.83503713978870
H           16.74102975301659        0.55791489238285        9.88355260375770
H           17.35051818466061       -0.61759473889849       11.07418757915038
H           18.43513719349297       -0.00201855675424        9.82599302957926
H           15.00666743551400       -1.96028922132138        9.49822433885424
H           16.15848411253933       -3.31836597681169        9.37991022105132
H           16.13194465607690       -2.31543060220110       10.83153923375903
H           15.80852780031329       -2.95362516583577        7.33650132239214
H           15.77973681435762       -2.58112525183494        4.94133185502656
H           19.58757649460302       -0.95656823852100        4.51698346672966
H           21.42387367102998       -0.66091720189750        2.57587171928799
H           21.34911780888399        0.45125365475956       -2.55796018179535
H           19.47151787265267        0.74623315588344       -4.43623726776473
H           17.56375438293084        0.02022116660883       -0.74213535363920
H           15.64139038477388        2.48789145872422       -4.75461586352330
H           15.58878943727103        2.83626595013023       -7.15232896138064
H           17.57055617137531        0.83251481250986      -10.86501930819009
H           18.69018001587523        0.76644360964817       -9.48232637795382
H           17.51709564784980       -0.54788899150087       -9.76688353371152
H           15.28502393663596        2.78468407500340       -9.23184451075619
H           16.34350837117784        2.52519797393233      -10.61943810232513
H           16.98734107088771        3.31761785505600       -9.16050302781816
H           17.84406835737209       -0.79924773075598       -7.70132094510002
H           17.87573916740931       -1.12345117342312       -5.29897996889918
H           14.09976144002238        0.45384385648462       -4.40113755759679
H           12.27624733648020        0.24119888768202       -2.43381665904759
C           36.21505480484655        0.06141139849313       -0.11667575914875
C           35.60934957581701        0.18867621718373       -1.36054077271667
C           36.26514123782529        0.37641065543717       -2.60893275371111
C           35.30747231216128        0.44194733084272       -3.58241014983441
C           34.03631814047803        0.28574782227515       -2.96114554285622
N           34.26876459636387        0.14694316195754       -1.62184774115189
C           32.77657644009960        0.29192212825210       -3.57370326466201
C           32.75248623205152        0.41884623886072       -5.04861849497600
C           32.08181612664161        1.47411993128240       -5.66946835981928
C           32.06508368848041        1.60205959660841       -7.04630464203586
C           32.71791861104100        0.66881620091244       -7.86580174599295
N           32.65510298441136        0.76089664451974       -9.25332258007593
C           32.30776664653866        2.06242297906292       -9.82522467093189
C           33.65962961391347        0.02378989931539      -10.02090752566767
C           33.37670803820920       -0.40037322732134       -7.24023323893997
C           33.39790813972174       -0.51415976341646       -5.86200430190652
C           31.56046430408901        0.18801182229962       -2.89292821504650
C           30.26648263065731        0.13183804689028       -3.54812368896116
C           29.34401290900042        0.04181611517531       -2.56720793563336
N           31.40291315689359        0.10705314843788       -1.54241556509463
C           30.07626038939464        0.02842844574580       -1.31627442318453
C           29.43603863323811       -0.05639254645966       -0.06258517352408
C           30.06760206668642       -0.13990907921661        1.19356154137250
C           29.41681836105541       -0.20099769432435        2.45366423653304
C           30.37916096498551       -0.28672425636252        3.42196442950141
C           31.64836315411522       -0.28941084015281        2.78088575882751
N           31.40780371588260       -0.19030390466780        1.43528926550233
C           32.90754819357326       -0.34853339193803        3.38985691929441
C           32.93222520720828       -0.49311471897272        4.86221203789221
C           33.57193020287976        0.45017926129632        5.66853092701170
C           33.58892819498735        0.32354315694302        7.04555145369231
C           32.96847238883400       -0.76451400659314        7.67780343223498
N           33.03245434818268       -0.93116375089384        9.05795047330309
C           32.03848353545644       -1.81239409131314        9.67285182800159
C           33.36678602764959        0.24205275631926        9.86538768396038
C           32.34034113905031       -1.71999912432166        6.86440988325554
C           32.31787983396575       -1.57908438208645        5.48901139745773
C           34.12589823973220       -0.27888997530168        2.70341208323622
C           35.43004714111586       -0.39728851719002        3.33589330061261
C           36.34508927728754       -0.27456946025656        2.35267592387659
C           35.60115387775487       -0.09727153336189        1.11876149259365
N           34.26810624266098       -0.11341945927943        1.36711004642076
H           37.30029621251691        0.08641606738497       -0.12136544436290
H           37.33349788192568        0.45683633560948       -2.73232467298082
H           35.46278959333947        0.59651445480811       -4.63788550896401
H           33.54020013091574        0.03650319530422       -0.92451936781882
H           31.58376968622921        2.22145966888160       -5.06131782565507
H           31.53259311170982        2.44118983077614       -7.47501839538741
H           32.98214703906753        2.85015327540696       -9.47129689339603
H           32.37095712197736        1.99916178925912      -10.91097620891152
H           31.28104556295359        2.31650158860372       -9.56008121636028
H           34.67665779707970        0.28793159800716       -9.71043720541359
H           33.50673560915587       -1.04794871570945       -9.89007479276786
H           33.53699331382172        0.25623466204595      -11.07815792785026
H           33.87610128362670       -1.16298079810811       -7.82390365205922
H           33.90524458014739       -1.35879996936262       -5.40810898515069
H           30.10637601458977        0.14255495126065       -4.61408610539877
H           28.27129894595619       -0.02287058124817       -2.65631501253310
H           28.34803134045190       -0.17511944614407        2.59269155939634
H           30.22525265875493       -0.33056371846893        4.48781857668947
H           32.13426529863297       -0.14773308926770        0.72811932951756
H           34.04288716090095        1.31295944491141        5.20992493748687
H           34.09436298000125        1.08739855614492        7.62221842263455
H           32.14341269298399       -1.76259087815074       10.75600630591542
H           31.01897337160793       -1.52145958179050        9.39695982183111
H           32.21894964032072       -2.84200798309494        9.36182645886065
H           34.38014604843680        0.56988167307359        9.63225590891735
H           33.33504509901501       -0.03467380339255       10.91862074223273
H           32.66623920206317        1.06583722394548        9.68861364151738
H           31.86713573770116       -2.59205756170219        7.29706791061859
H           31.83537977680697       -2.34112622090323        4.88633354216412
H           35.59947928623646       -0.56750111795487        4.38699095958878
H           37.42117662567797       -0.30875497902828        2.42355998784200
C           25.46296858313109       -0.06957409818115       -0.01611377630436
C           24.23440222908482       -0.07295600543842        0.00304106137272
C           22.89061074459657       -0.07420418189244        0.01835794524017
C           21.66645122681160       -0.07627405367324        0.03477149625554
C           26.80675413224603       -0.06652715040246       -0.03217261113948
C           28.03094415617065       -0.06242676430605       -0.04969383482842
