246
 energy: -403.567731134191 gnorm: 0.000885415971 xtb: 6.5.1 (b24c23e)
C           39.85514288460462        0.04573136820507        0.09955716255485
C           40.46824611463764        1.22269096210752        0.50856659402803
C           39.81992828342398        2.41051314118110        0.95001749315446
C           40.78438437422142        3.33333060580691        1.24215855093699
C           42.05389363262045        2.74222130710676        0.98177601334430
N           41.81169652102388        1.46760439631581        0.55219101331907
C           43.31738281790179        3.31917642745989        1.14677459731065
C           43.35572774787983        4.73611953431515        1.58458621594485
C           42.81099802036113        5.71386833479265        0.84492481286189
C           42.82750278878462        7.15819891526376        1.27367665639541
N           43.81050821587283        7.38359474035425        2.33631870135136
C           44.18532273061903        6.35944208776376        3.16713888468317
C           44.01931309671996        5.06636083180843        2.83768032459284
C           44.53056450566207        2.66097880437317        0.92605256703685
C           45.83083284188416        3.29049239979850        1.07097860883660
C           46.74824393745337        2.34775262891811        0.77245629951656
N           44.67936252802905        1.36790092506914        0.52984493230393
C           46.00752936555736        1.14753388173556        0.43391167592920
C           46.63809560125807       -0.05362138504577        0.05862219963781
C           46.00043005039757       -1.24323612774748       -0.33628224847143
C           46.64177327560561       -2.45503129993679       -0.70783664540881
C           45.67258328375003       -3.36259966769613       -1.03377531179300
C           44.40788489948540       -2.73081689798366       -0.87633701036372
N           44.65800442807529       -1.45379017305536       -0.44817157561044
C           43.14513052542333       -3.29715421821255       -1.08289167019298
C           43.11600241290331       -4.69765648777599       -1.56889146377007
C           42.53655332913295       -5.67898943519748       -0.86130661072344
C           42.48158057707941       -7.10369082667836       -1.34792640940358
N           43.44258253521162       -7.33235873946925       -2.43046993878274
C           43.85730844633979       -6.29364038747568       -3.22336883912105
C           43.75562452358871       -5.00886794705263       -2.83997995127825
C           41.93099342515836       -2.63792087480676       -0.86418389465401
C           40.62352430542143       -3.21807441314774       -1.12794258482522
C           39.71362951202204       -2.28331803015411       -0.78607685095993
C           40.46395393396963       -1.12720093443242       -0.32910845775982
N           41.79479572627143       -1.37361001085583       -0.39677869767231
H           38.76977302161290        0.05460976445713        0.11199769713092
H           38.75111516879375        2.52827548737122        1.03314897632258
H           40.63702407799871        4.33396830350274        1.61498989166708
H           42.53545094666589        0.80188772557744        0.30271502064412
H           42.31955108397074        5.50979272352665       -0.09929809317446
H           41.82140704487370        7.46728189331552        1.61482536290360
H           43.09300478132621        7.80157088902996        0.42395002315455
H           43.75465670793634        8.30026184795653        2.75598015622929
H           44.70116249887764        6.67190315521518        4.06942472387213
H           44.36598603885964        4.27113161571743        3.48211793705844
H           45.99670707899929        4.31693478641132        1.35553504373110
H           47.82319096530983        2.43275812411698        0.76505667828919
H           47.70959195534748       -2.60358773897195       -0.71749655831284
H           45.81646637311028       -4.38298590843530       -1.34982420873977
H           43.93732529359882       -0.77125713728966       -0.23747596703814
H           42.06250907701853       -5.49040168379835        0.09483355475958
H           41.45898422071372       -7.35077918294443       -1.68989764055423
H           42.72450749125827       -7.79308717338208       -0.52807920001200
H           43.33457007574848       -8.22592943375307       -2.88825584772907
H           44.34941420226276       -6.59231526960823       -4.14351558004661
H           44.13223958032512       -4.20572944218090       -3.45742656907161
H           40.44974375641566       -4.20238089572005       -1.53209486197200
H           38.63726647891735       -2.33746665925835       -0.83816953771631
C           86.97149230473050       -0.09356552923965        0.06150674624393
C           86.35776131585339       -1.30588706795818       -0.22496604499850
C           87.00389715793766       -2.55261629223347       -0.45763945904454
C           86.03940901313958       -3.48533058735414       -0.71643409225690
C           84.77229180595445       -2.83729904922413       -0.65908931898263
N           85.01545133384707       -1.52855595211303       -0.34935343208397
C           83.50944132512065       -3.40568036495438       -0.85569650529768
C           83.46988048975177       -4.84245040357527       -1.22280819203273
C           84.04394728722554       -5.29757087175114       -2.34667077982612
C           84.02797039504959       -6.75444719249766       -2.73083605446368
N           83.01644467349971       -7.49169913883895       -1.96949672551943
C           82.60831236640220       -7.04526046352669       -0.73918196023250
C           82.77277700655266       -5.77059974189683       -0.34394922392240
C           82.29741865114084       -2.72049951885362       -0.73138673569974
C           80.99940324154696       -3.32169886206797       -0.98023578577709
C           80.08203760940509       -2.35807084652994       -0.75795698954272
N           82.14796843943540       -1.41340052981186       -0.38512297911314
C           80.82075644676885       -1.16712801776422       -0.38432221895448
C           80.18998063302116        0.05068544574931       -0.06762730529284
C           80.82804006915383        1.26180419615955        0.25443827404625
C           80.18647643636528        2.48698399206838        0.57891408016551
C           81.15612057695662        3.42323031053373        0.80804187820705
C           82.42141468981356        2.79949952894881        0.62539161356398
N           82.17098883296073        1.49293145925326        0.29807313467590
C           83.68448878723601        3.38249587362246        0.77537220518890
C           83.71484140455780        4.82547225327562        1.11540252963801
C           84.27612295798096        5.27136158113600        2.24926622555727
C           84.33200180103987        6.73432891377040        2.60423300300798
N           83.39171536280953        7.51356125461422        1.79404376213636
C           82.99654740605827        7.06375478206872        0.56083079607064
C           83.09696949504367        5.77294556705550        0.19780219949891
C           84.89817350385717        2.70258272719201        0.62940981967660
C           86.20688811332172        3.32781746393108        0.73917895126556
C           87.11575956960434        2.35006709746781        0.54809349781232
C           86.36388369986180        1.13160636784319        0.30619845942178
N           85.03309132208680        1.38294867465805        0.35422557895829
H           88.05639309565528       -0.11354930432638        0.09082745186429
H           88.07121052093343       -2.70348901349183       -0.42264420231361
H           86.18527218264803       -4.53368271644748       -0.92051828168318
H           84.29293409316689       -0.82680612797886       -0.22793202194849
H           84.56063950653545       -4.63650217387666       -3.03275397599190
H           85.02644079753560       -7.20302963773626       -2.56981058764939
H           83.79341408139442       -6.86133627233134       -3.79852872450253
H           83.06835798272961       -8.49336956819825       -2.08549437816842
H           82.06883340724342       -7.77684141158147       -0.14626578008100
H           82.40011384647809       -5.42290582344408        0.60898006803707
H           80.83533954195747       -4.34112234104222       -1.28999210842101
H           79.00852268970795       -2.41862206679564       -0.83972555176952
H           79.11814813652414        2.62277669950403        0.63050340102223
H           81.01218098484762        4.45480023867969        1.08541121213047
H           82.89148838295056        0.80011064569524        0.12346202417966
H           84.73376123230040        4.59680360624119        2.96344492179110
H           85.35970696300245        7.12072948967795        2.46926198230711
H           84.06828701203870        6.87741335092679        3.66086311997584
H           83.50402266401940        8.51261847202042        1.88864134997791
H           82.52041819380648        7.81200044527526       -0.06486940815864
H           82.73551929875222        5.42818591416755       -0.76063350265415
H           86.38229661824253        4.37537689225381        0.92425030865860
H           88.19258802271604        2.41825588200248        0.55330160671419
C           49.26939401845847       -0.09411877011288        0.07628197312178
C           48.04855934850164       -0.07724436254548        0.06717561139876
C           50.62224879101771       -0.10352999774692        0.08153298905029
C           51.84332316954744       -0.10370705140697        0.08267787371348
C           62.73958178214782       -0.00499649449698        0.01578377024727
C           61.51688759378909       -0.01141434079236        0.03012055273919
C           64.08805520919013       -0.00075052927061        0.00237536538806
C           65.31060416410703        0.00291301080348       -0.01166653481544
C           76.20555249582212        0.09170565857426       -0.06091842784907
C           74.98450516501069        0.09050386291840       -0.05204352832868
C           77.55849558208139        0.08478332377713       -0.06623231240676
C           78.77938153949984        0.07195612052016       -0.07169808466357
C           53.25300514121724       -0.10341919867854        0.07662166218897
C           53.88476753926236       -0.30145775422931        1.31776443822953
C           53.24187914302326       -0.47855923699431        2.57076850899448
C           54.21174231441818       -0.61651757804834        3.52567174922145
C           55.47664000943182       -0.53670251181365        2.88178965431964
N           55.22778207783515       -0.34166631379992        1.54908686185718
C           56.73909403222172       -0.61251096069325        3.48131445796991
C           56.76707119015135       -0.84647564529630        4.94691372473601
C           56.27474975185774       -1.96934509522581        5.49113842648039
C           56.34088471622092       -2.24843369860068        6.96985123591942
N           56.62907579316354       -1.02840287134206        7.72822469629163
C           57.27116768228613        0.02883326398020        7.13891322686657
C           57.34287233365102        0.17886777482796        5.80447481077334
C           57.96012327811292       -0.48659119383476        2.81707632710066
C           59.24977693861732       -0.63141627222160        3.46777974978053
C           60.18376089917473       -0.46547150104221        2.50816670265055
N           58.13206370927042       -0.24833000817304        1.48733673139420
C           59.46295332047979       -0.22549238275981        1.27364163425400
C           60.11240256623643       -0.01256136431562        0.04080020565960
C           59.47872873783535        0.19355862615573       -1.20014910961224
C           60.12117846233622        0.37610828562954       -2.45195219429221
C           59.15084662406923        0.52286117325615       -3.40542435173057
C           57.88662764860982        0.44180135270525       -2.76087296369324
N           58.13638586010647        0.23784928761201       -1.42942619726480
C           56.62428845060759        0.52197347213963       -3.35898158095526
C           56.59730871670879        0.77396398412530       -4.82146212264962
C           57.08640225714045        1.90662772764089       -5.34818454687082
C           57.02212788871294        2.20523826106298       -6.82301853559320
N           56.75532263279339        0.99076811546066       -7.59804102625864
C           56.11304278477395       -0.07681445778783       -7.02707407954866
C           56.03076393498371       -0.24287238806115       -5.69513090190198
C           55.40335114800352        0.38637158649541       -2.69564484016134
C           54.11343013886949        0.52913740221430       -3.34680267172801
C           53.17960329655320        0.35225269928969       -2.38939478380496
C           53.90025704996875        0.10960736639556       -1.15491210893222
N           55.23259790373784        0.13939032798971       -1.36867387730774
H           52.17346805085754       -0.48972354384161        2.71459963906832
H           54.06745943419768       -0.75244191670928        4.58507479170870
H           55.94564754927633       -0.23454929159436        0.84024123181162
H           55.86955469374928       -2.76887223502310        4.88175712222783
H           57.10905532157557       -3.01626211756724        7.17975352792889
H           55.37986026183752       -2.64823974434293        7.32159587616396
H           56.83730618179317       -1.19160075080884        8.70264058873795
H           57.64275047400452        0.77674279781676        7.83209005313185
H           57.78621112169854        1.05835245848519        5.35996511229688
H           59.39773699702459       -0.84489667083388        4.51422700284876
H           61.25767577088369       -0.50340138896411        2.59885038228589
H           61.18946517311304        0.38494629357864       -2.59680469345259
H           59.29467681617947        0.66459746548100       -4.46410492031632
H           57.41922629320472        0.12875419096701       -0.72018573629123
H           57.48638163078912        2.69889545058471       -4.72596216246547
H           56.24347912174624        2.96428288499423       -7.02595114391849
H           57.97852998264433        2.62326166148005       -7.16541481792916
H           56.55494633552441        1.16436262868701       -8.57235336063397
H           55.75196831563547       -0.81896809381027       -7.73197042279631
H           55.58846264946248       -1.12985774258611       -5.26446258820611
H           53.96559389814266        0.74842127116838       -4.39203725127558
H           52.10573611965673        0.38571401726519       -2.48154505370961
C           66.71509795631980        0.00428068216711       -0.01971395543108
C           67.34685146580266       -0.20236024535772        1.22216610594327
C           66.70241745306615       -0.38418153822968        2.47305110428136
C           67.67119439456916       -0.53187658036405        3.42792010797124
C           68.93650877429907       -0.45242025210560        2.78519604946439
N           68.68882731359842       -0.24812563809394        1.45341098247552
C           70.19780472400254       -0.53516480675725        3.38525341566882
C           70.22145217004707       -0.78727508499995        4.84784287221908
C           69.72800550256486       -1.91843527610278        5.37381824563004
C           69.78748421235210       -2.21663517753844        6.84895249144581
N           70.05663077470483       -1.00285310292009        7.62422553889324
C           70.70337178692081        0.06259683555315        7.05437105379199
C           70.78888896843627        0.22814804573804        5.72255707104976
C           71.42008902621289       -0.40153730217879        2.72389788499344
C           72.70897029351222       -0.54767191600807        3.37646930237957
C           73.64442459312465       -0.37144160544480        2.42048299406379
N           71.59312153539135       -0.15316805573074        1.39742941948441
C           72.92586355447743       -0.12548651285025        1.18545870578588
C           73.57472472968524        0.09058045081313       -0.04453897840516
C           72.94465848467443        0.29321850921294       -1.28591484898581
C           73.58948067608904        0.47187076903480       -2.53769558848206
C           72.62119501091085        0.61115251281506       -3.49391437948101
C           71.35528060111076        0.53085632330348       -2.85202289588908
N           71.60200643968041        0.33435047629611       -1.51922897996358
C           70.09401511274895        0.60696873787547       -3.45393639609729
C           70.06943796980536        0.84259064727402       -4.91930826725205
C           70.56386786674982        1.96594667168524       -5.46066672364890
C           70.50182340968108        2.24672875151137       -6.93920038301432
N           70.21890835027243        1.02674360678621       -7.69963743990387
C           69.57352315909016       -0.03056605238516       -7.11387983820286
C           69.49606640812773       -0.18151970313390       -5.77986665615876
C           68.87176005045798        0.47994392580236       -2.79225826570014
C           67.58322014446235        0.62408698271006       -3.44512773910358
C           66.64767485735014        0.45724656464957       -2.48716264326353
C           67.36654485465297        0.21744858912786       -1.25144914477678
N           68.69773992209146        0.24113725807084       -1.46285372443948
H           65.63390292933937       -0.39188933005637        2.61627473977426
H           67.52564242730359       -0.67324606430659        4.48640230831529
H           69.40725322895051       -0.13954080955107        0.74537871271798
H           69.32724211891697       -2.70982444201388        4.75097251062602
H           70.56279927956616       -2.97843391089130        7.05420166669799
H           68.82869293775403       -2.63099963364448        7.18904689817594
H           70.25411721171920       -1.17670084957832        8.59908390721927
H           71.06524676078170        0.80376212820402        7.75985732656024
H           71.23461761606418        1.11382287305339        5.29271700624349
H           72.85490009081040       -0.76843824569007        4.42168858095907
H           74.71815128996134       -0.40712791574438        2.51368147505867
H           74.65809877770469        0.48283948411344       -2.67989334844878
H           72.76712048781536        0.74789748055391       -4.55296222659146
H           70.88300246527594        0.22620197240184       -0.81169351984620
H           70.96773080019048        2.76440067382972       -4.84900693587828
H           69.73253040109464        3.01299331333975       -7.15068108183519
H           71.46300472964880        2.64899036106397       -7.28751426435714
H           70.01483081108501        1.19057844565306       -8.67483771713243
H           69.20457515993516       -0.77786019423456       -7.80912174191855
H           69.05058044673640       -1.06122940206685       -5.33792302625289
H           67.43683920963950        0.83768336982931       -4.49178012795798
H           65.57389735102223        0.49434340720097       -2.57983699643259
