240
 energy: -391.049158078493 gnorm: 0.000847017464 xtb: 6.5.1 (b24c23e)
C           43.67555895832211        0.06613275212723        0.04557741037260
C           44.28194188856502        1.23531125155949        0.48534475889210
C           43.62560273141058        2.41173811467098        0.94565634824021
C           44.58412889832269        3.32719155304179        1.27708783882953
C           45.85854348020097        2.74417590258461        1.02115460483999
N           45.62422265088756        1.48047690731815        0.55549900980685
C           47.11863692273129        3.31709726779433        1.21880232717802
C           47.15273014966620        4.71893559999572        1.70204315638624
C           46.61031569038608        5.72082717639660        0.99351340224095
C           46.62114610365911        7.14959546550700        1.47159790765207
N           47.59428331668713        7.34000755020680        2.55029735134741
C           47.96918550833738        6.28821214405634        3.34544147219701
C           47.80956228949922        5.00716602734705        2.96912732222809
C           48.33458017093951        2.66518477360806        0.98910218752616
C           49.63388507264779        3.29222113405236        1.15593686132087
C           50.55332026480011        2.36034604333817        0.83129135513379
N           48.48527309477412        1.38533760474702        0.55780000267688
C           49.81542841144690        1.16850589946983        0.45736344475490
C           50.44587284205659       -0.01753831895343        0.04779087879551
C           49.81809291623566       -1.20230433289255       -0.36812596741822
C           50.46843795154239       -2.40640490078886       -0.75108804657437
C           49.50601509559483       -3.32051385051476       -1.07800211501608
C           48.23624664859193       -2.70018214922668       -0.91360583303085
N           48.47658855612671       -1.42385411900095       -0.47925276079389
C           46.97616419432379       -3.27287522005442       -1.12037527633335
C           46.95053822513930       -4.67748193155415       -1.59368063730955
C           46.36360770793443       -5.64931606637998       -0.87882184650627
C           46.31399650824299       -7.08030109330501       -1.34706759296022
N           47.29575053167892       -7.32419467825324       -2.40731014772830
C           47.71448701043366       -6.29730684890890       -3.21415793133171
C           47.60290745242376       -5.00673022687268       -2.85382522396711
C           45.76028408349163       -2.61417656829005       -0.90942352462751
C           44.45530068728916       -3.19155819104178       -1.19137365296214
C           43.54281742772793       -2.25525698688522       -0.86083713961329
C           44.28898984497224       -1.10276313705546       -0.38798402075039
N           45.61997227862989       -1.35113938546455       -0.43967347601403
H           42.59007125259020        0.07571076419929        0.04203997495474
H           42.55552594702177        2.52693126126923        1.01525167319462
H           44.42952674790171        4.31759041226947        1.67358541713168
H           46.35316715479473        0.82251250103344        0.30051251910390
H           46.12477588846778        5.54859855318016        0.03987987190446
H           45.61170483445711        7.44562040304178        1.81442259938089
H           46.89303297388270        7.82223567668458        0.64681441180702
H           47.53298326461237        8.24130260226615        3.00129199124039
H           48.47899407803493        6.57022614768461        4.26120065127585
H           48.15618762580484        4.19088040553003        3.58675988347551
H           49.79661448389508        4.31063956581806        1.46976116775376
H           51.62819610417876        2.44726543517527        0.82799476822475
H           51.53734899782941       -2.54676599598731       -0.76452535778716
H           49.65789739363839       -4.33788268240067       -1.40003606686191
H           47.75003866664462       -0.75030350731536       -0.25990146452391
H           45.88037803638465       -5.44760877381450        0.07004223024743
H           45.29763517632554       -7.33023188907958       -1.70547544178774
H           46.53996832379421       -7.75903392545628       -0.51373160667173
H           47.19931421871352       -8.22641669544616       -2.85065657489031
H           48.21840279755434       -6.60990430681871       -4.12326266670446
H           47.98111454191898       -4.21215286024699       -3.48136098752943
H           44.28594401261051       -4.17432440951902       -1.60115377041459
H           42.46719053094471       -2.30672624803421       -0.92865873953887
C           83.15780552498282       -0.07266482027379       -0.04013487568303
C           82.54948543908735       -1.29009393055081       -0.31562520655498
C           83.20291320160293       -2.53286332627569       -0.55076842992367
C           82.24341331988100       -3.47428294186307       -0.79517566506149
C           80.97156400454617       -2.83572958119088       -0.72916592382169
N           81.20785785886041       -1.52418952815258       -0.42464985347721
C           79.71147983368763       -3.41073241521960       -0.92100788944315
C           79.67392778107885       -4.84897371333209       -1.28045226950764
C           80.25894867848696       -5.31442263171403       -2.39456962263820
C           80.24685472435436       -6.77453027704501       -2.76635688818984
N           79.23091266237874       -7.50708144167090       -2.00596413062921
C           78.80806922770999       -7.04822886921981       -0.78530279181249
C           78.96677836060897       -5.76946732044754       -0.40126317805879
C           78.49760095482780       -2.72683458555703       -0.79633933243286
C           77.20030152120822       -3.32516023019235       -1.05721004885941
C           76.28210719642652       -2.36442077195261       -0.82653362379827
N           78.34790980459569       -1.42518969028672       -0.43600875657709
C           77.01908250440138       -1.17878572516088       -0.43161046137307
C           76.38848313945070        0.02494501810002       -0.07811999265862
C           77.01692213213457        1.22824794899532        0.27904721279402
C           76.36879326140638        2.43648232257505        0.65252992587820
C           77.33257701509970        3.37617335299677        0.89105824208660
C           78.60090435905740        2.77283159743949        0.66392354744834
N           78.35875747918465        1.47356606188365        0.30597663113942
C           79.86119472982701        3.36700843894350        0.79549570763646
C           79.88658774081493        4.80207631100118        1.16560918577820
C           80.48658426584639        5.23096386582377        2.28633159934434
C           80.53740867265921        6.68693095326042        2.66980800913872
N           79.54344069190631        7.46519090175586        1.92558163142658
C           79.10947093319625        7.04038303949585        0.69591517418601
C           79.21961764717153        5.76155509277092        0.29564428781970
C           81.07636886153554        2.70151000319985        0.60266238329988
C           82.38209316780024        3.33769410494740        0.68077995238956
C           83.29362895111917        2.37027471336973        0.45311056744868
C           82.54600276405783        1.14708250758562        0.22190455185222
N           81.21519162480081        1.38637108012313        0.30793722085755
H           84.24323787993023       -0.08414219996772       -0.03154447231214
H           84.27165685484159       -2.67553004576201       -0.52605081315370
H           82.39561061403660       -4.52245637201205       -0.99554993370606
H           80.48053592939067       -0.82821996486935       -0.29839545066895
H           80.78239009269410       -4.65964584100606       -3.08166439360796
H           81.24463219013315       -7.22075114007287       -2.59437439912066
H           80.02019250654335       -6.89082740685826       -3.83489815417693
H           79.28648362574812       -8.50978959624020       -2.11096484387624
H           78.26297602915056       -7.77466442238407       -0.19099732202768
H           78.58269236869209       -5.41315537108602        0.54396670957739
H           77.03809782291961       -4.34048044432824       -1.38124632174987
H           75.20881803347338       -2.42366981373222       -0.91290898638288
H           75.30034219051045        2.55895734721397        0.72936289028961
H           77.18301255858673        4.39728975146775        1.20215992608510
H           79.08401551433977        0.79478268209643        0.09898540690568
H           80.98030070983151        4.54731572687283        2.96703930961086
H           81.55036263045714        7.09404164412370        2.49065668808451
H           80.32575944393945        6.80367316485433        3.74110449568231
H           79.63913240242179        8.46376731041246        2.04208124362311
H           78.59534580731281        7.79522542671712        0.10937030444287
H           78.82906904821887        5.43436511171086       -0.65760089696629
H           82.55296295878109        4.38522067461430        0.87030066721882
H           84.36944843381325        2.44865681702865        0.42704252322813
C           51.86418633163602       -0.03380447775944        0.04763664049092
C           53.07859294256491       -0.04628413445813        0.04410220782512
C           62.80895200470798       -0.03780598989291        0.02011586538749
C           64.02675557621041        0.02388426603705        0.02268489212563
C           73.75569603018083        0.05002326280343       -0.06278367620939
C           74.97001185322370        0.04031706874288       -0.07443509791113
C           54.49542885266214       -0.06525814761582        0.03909362831251
C           55.12269901650402       -0.22648191561898        1.28431866467507
C           54.48269713656452       -0.34624850358990        2.54601904359090
C           55.45438345313481       -0.48563258838741        3.49830348050677
C           56.71741291139804       -0.46428142067236        2.84447218531889
N           56.46624377335850       -0.29698460392076        1.50943969661253
C           57.97955683072865       -0.57750299681396        3.43711225502088
C           58.00372076053500       -0.79218182140479        4.90625669198284
C           57.47110937480723       -1.88781431699510        5.46775738239641
C           57.53137996855242       -2.14568718862143        6.95055891542609
N           57.84512396709161       -0.91933376681004        7.68889290367043
C           58.53206668408681        0.10204863347544        7.08495047224988
C           58.61674528062601        0.22445858331500        5.74867634667074
C           59.20427526933638       -0.50584064279301        2.77093079715620
C           60.48125808357177       -0.70195309305952        3.43125926606532
C           61.42750562699194       -0.55831787477247        2.48081238407623
N           59.39693087781176       -0.26920856160178        1.44318800840359
C           60.73140845107081       -0.28213113171535        1.24150351311877
C           61.39953343062734       -0.07056472606897        0.01661230418549
C           60.76023117205595        0.10522093895591       -1.22747460975146
C           61.38959088435743        0.23597528616629       -2.49129802981103
C           60.41430842735889        0.36439296210176       -3.44113006487924
C           59.15494658574242        0.32139602960016       -2.78394945169769
N           59.41480747809858        0.15432633418853       -1.44872934514929
C           57.89465228694570        0.40336053708345       -3.38605575983000
C           57.87577307699006        0.62834248278949       -4.85365639267541
C           58.37187543186678        1.74979471913778       -5.39738947439613
C           58.31096429345331        2.02697063269664       -6.87650628545323
N           58.03321061747215        0.80392932410299       -7.63408887017849
C           57.38413826833627       -0.25107731116587       -7.04649272893398
C           57.30323680619756       -0.39791820928318       -5.71235376645705
C           56.66665701028393        0.29952872030421       -2.72972188583847
C           55.38300264094944        0.43799885965899       -3.39589654191596
C           54.43942355517194        0.29986863172460       -2.44197642640276
C           55.14769070535345        0.08792717574526       -1.19465700598986
N           56.48328854522157        0.09354165015822       -1.39920145601321
H           53.41527500667723       -0.32116604576934        2.69567432767526
H           55.31408944253039       -0.58628844914139        4.56217975278168
H           57.17952076720620       -0.23333213715867        0.79090429113388
H           57.03483190996825       -2.68059252189523        4.87113100915231
H           58.28341381846370       -2.92616294020280        7.17287794837733
H           56.56223988712612       -2.51866802022123        7.30875656048449
H           58.04278294234290       -1.07256333168481        8.66727395293108
H           58.92719402717582        0.84840008011482        7.76677874338166
H           59.09653355256018        1.07753796875348        5.29043724861781
H           60.61373804079629       -0.93308567136815        4.47598036636711
H           62.49601015961197       -0.64479123606361        2.58231760483956
H           62.45380422718717        0.21583287983914       -2.65172593634892
H           60.55186952026816        0.46731602220183       -4.50504395375224
H           58.70467979458649        0.07873445855756       -0.72810725021668
H           58.77611376924909        2.54908884070283       -4.78704328389335
H           57.53921247650674        2.79018474189764       -7.09068618931861
H           59.27119396594579        2.43162499086360       -7.22467975354017
H           57.82805149136252        0.96573698418729       -8.60950740362265
H           57.01633552093857       -0.99988096567795       -7.74076414227583
H           56.85538971568604       -1.27553011974663       -5.26837524111147
H           55.24613249909977        0.62778637199995       -4.44839564230113
H           53.36656231016056        0.34300733685272       -2.54254801621012
C           65.43611906749811        0.05872816009072        0.02055715404863
C           66.08349255454881       -0.15410316067637        1.25449698061720
C           65.46232669800847       -0.33148921771290        2.51663467538708
C           66.44382029978667       -0.47088297959154        3.45839473601201
C           67.69930070197515       -0.39186812146482        2.79708769619693
N           67.43057021725517       -0.19345266878334        1.46789078353215
C           68.96369311680699       -0.46888454159800        3.39101353649758
C           68.99406904812739       -0.71191384578584        4.85560352552061
C           68.51644966829214       -1.84561411529545        5.39021947263866
C           68.58871864889196       -2.13652479417973        6.86624528244876
N           68.85217935093166       -0.91705295405683        7.63468142834742
C           69.48456960660991        0.15228694318782        7.05482003586872
C           69.55724619663653        0.31327347904931        5.72186794499542
C           70.18685883098770       -0.34325086930112        2.72938382485888
C           71.47533506722777       -0.48140558922014        3.38634566851186
C           72.41230972693934       -0.32740502355992        2.42838931141485
N           70.36091067933692       -0.11953449340338        1.40058239153484
C           71.69529890037388       -0.10480881838007        1.18792518810931
C           72.33867412661773        0.06588521043847       -0.04805361766039
C           71.70279401254325        0.24146323128672       -1.28684031938541
C           72.33435264181398        0.37318599597860       -2.55161318123107
C           71.35639143926534        0.52307333968477       -3.49585628654269
C           70.09786209510204        0.49783020843991       -2.83356876742131
N           70.35788058389141        0.31569632202614       -1.50214916233989
C           68.83173248745233        0.62713308741180       -3.41437134166929
C           68.79582432420683        0.85907996531617       -4.88041843144727
C           69.33881434683910        1.95223692196223       -5.43687422414508
C           69.26817211658904        2.22431326567358       -6.91670997001785
N           68.93374367801610        1.00829178717669       -7.66284975663992
C           68.23556639294209       -0.00771255512426       -7.06235438048810
C           68.15963150294991       -0.14021771280194       -5.72659056818250
C           67.61241013642005        0.55618173807464       -2.73809467998670
C           66.33229696716914        0.78705328087933       -3.38078515189812
C           65.39279426129136        0.63069844098736       -2.42554281440393
C           66.09634400555464        0.30828893269044       -1.20162083838160
N           67.42877231700743        0.28681934038174       -1.41537940641072
H           64.39870482608369       -0.33538559850346        2.68188438261982
H           66.31243344231007       -0.60552474582331        4.51953063451394
H           68.13620707329790       -0.08951782883236        0.74637008055132
H           68.12004148409370       -2.64422252061442        4.77387953129230
H           69.37258528777984       -2.89041528536829        7.06921484469039
H           67.63619039647028       -2.55854423457123        7.21493504226627
H           69.06372332826412       -1.08546777240647        8.60762640449168
H           69.84556965011997        0.89907412042996        7.75481876072061
H           69.99157847490865        1.20092368878555        5.28446740973747
H           71.61944837476224       -0.68249752808435        4.43578289976816
H           73.48597928497593       -0.36584935894091        2.52189737133722
H           73.40070452995302        0.34812448389782       -2.70873546247862
H           71.48976804080596        0.63370866249212       -4.55962150615702
H           69.64955357760131        0.24432919109499       -0.77945376522419
H           69.79199769581598        2.73323350571319       -4.83732211336227
H           68.52342798569578        3.01551475407091       -7.12531954832347
H           70.23841971084677        2.58905855210615       -7.28024339794508
H           68.73133462738184        1.17211803354091       -8.63855865816118
H           67.82383044828143       -0.74200435860456       -7.74741987202885
H           67.67004784380846       -0.98947117494753       -5.27161084849172
H           66.19409641950266        1.05022553827601       -4.41717024233279
H           64.32505026327684        0.73962562410513       -2.51303735217112
