130
 energy: -248.219678058556 gnorm: 0.000700898634 xtb: 6.5.1 (b24c23e)
C           11.59724245902002       -0.47633687252124        0.20313537725091
C           12.20325409819624       -1.20487841472201       -0.81228395648555
C           11.54937353607666       -1.99869761361192       -1.79620805257914
C           12.50639336510807       -2.52583530410540       -2.61680213885120
C           13.77781198904483       -2.08609427476337       -2.14953897246019
N           13.54289234308848       -1.28511230982898       -1.06763538762829
C           15.03939693789818       -2.38740674442544       -2.67436012363933
C           15.07945761045644       -3.27755478771143       -3.86132542399863
C           15.63153776473291       -2.80622917199229       -5.05582874672458
C           15.66514278943436       -3.63000680739013       -6.17372162048210
O           16.18150776856184       -3.23369981097335       -7.37962881460315
C           15.15815085533110       -4.92518286525299       -6.10605902868810
O           15.18216415068579       -5.75921922995066       -7.19299019687529
C           14.61146372646665       -5.39878275631027       -4.91226070691179
O           14.12566033285662       -6.66288751926376       -4.85550473220532
C           14.56855781317679       -4.57383693388210       -3.79411132233938
C           16.25081046544028       -1.91547250985798       -2.16202538442154
C           17.55270274750033       -2.33179715954718       -2.65101922221259
C           18.46829247669740       -1.68684457413992       -1.89839879914865
N           16.39813347782919       -1.04175535414198       -1.12831172227389
C           17.72484497568762       -0.87627424156468       -0.95364903729260
C           18.35518240938367       -0.02965977408963       -0.01908294183775
C           17.71431478596440        0.79792992765273        0.92272335553698
C           18.34896297053909        1.72090806581949        1.79532739443160
C           17.37866959060290        2.33777449717881        2.53580889914779
C           16.12136006074312        1.79575343721335        2.15039491986377
N           16.37567997493642        0.87839908945666        1.16463684769552
C           14.85812901778803        2.12261611922534        2.65545762960205
C           14.80312313415650        3.14802011909803        3.72598344186849
C           15.47620107479453        2.95447293635217        4.93271021830207
C           15.41750466117875        3.92385464923762        5.92740710548662
O           16.06207055634124        3.74243583597298        7.10587090003996
C           14.68988550562087        5.09600584554539        5.71516479561006
O           14.65381752624607        6.03571639714850        6.71185968323557
C           14.01932867668804        5.28996391907397        4.51022992513614
O           13.32902283947182        6.46587472386545        4.37267363537045
C           14.07025993461884        4.32022873127750        3.51715688385650
C           13.65502841228304        1.55399318579142        2.22190429434041
C           12.35928671383941        1.82265335754305        2.82598813935085
C           11.45925878354557        1.08431301920338        2.14542109265972
C           12.20356651331447        0.36462916743596        1.12731943094009
N           13.52351733739302        0.66217600081528        1.21144169920716
H           10.51735131197088       -0.56769546655468        0.26355448333103
H           10.48138245664693       -2.13217606923370       -1.86289971910751
H           12.35046495641148       -3.16031230459078       -3.47408605383760
H           14.26933897139177       -0.81685213766180       -0.53624372522352
H           16.01674136758594       -1.79526019838469       -5.11869584477065
H           16.51826861247107       -2.32957218061414       -7.32817916560802
H           15.59734338266874       -5.28007528111841       -7.92773719046199
H           14.25204149518471       -7.07734716485823       -5.72500503981646
H           14.15835410528774       -4.95872995860704       -2.86941007393352
H           17.72211689001077       -3.03912048599810       -3.44674308710462
H           19.54375464205432       -1.74055919497440       -1.95518680125046
H           19.41251792495711        1.89263461443217        1.83614664028736
H           17.51921032888184        3.10496550696852        3.27952217651670
H           15.65866636726458        0.34257394716446        0.68657579284408
H           16.02817307958704        2.04193424468819        5.11733986092114
H           15.89886306093130        4.51949749207317        7.66558880573552
H           14.10735520683581        6.77628654807270        6.40403487054315
H           12.89225871027443        6.50848965184812        3.51187565860964
H           13.55816130867501        4.48455396695615        2.57630966976456
H           12.18843632474742        2.47427253042257        3.66791213699749
H           10.39366088624005        1.01023454519373        2.29689107556712
C           31.71767433428555       -0.31505759193690        0.41138643745189
C           31.11137914961053        0.48628097994989        1.37021331783607
C           31.76511592025422        1.24094241209657        2.38457254986248
C           30.80800554144309        1.90405506326110        3.09965248918587
C           29.53665355895931        1.56146336099954        2.55694148275618
N           29.77170995511500        0.71351940857223        1.51146061175182
C           28.27510814242958        1.99539894874128        2.97893149149804
C           28.23533371066033        2.92369690916116        4.13630582519957
C           27.68416290430046        4.19826456942232        3.97670610170963
C           27.65133963731062        5.07638619116172        5.05246100472720
O           27.13587802517537        6.34332246443953        4.96833397319191
C           28.15834177197569        4.68866265643232        6.29008496539395
O           28.13530242373855        5.53432892808455        7.36801219644560
C           28.70409363113385        3.41420943116949        6.45207811183570
O           29.19000684157589        3.04480340592060        7.66229150282601
C           28.74606779981233        2.53606473744504        5.37517117146664
C           27.06371384796816        1.61757358175201        2.39365429027464
C           25.76177593770182        1.98914713769832        2.91735507171977
C           24.84624523445081        1.42135988459701        2.10484882423961
N           26.91643986465143        0.83360553876287        1.29033635649069
C           25.58974250657348        0.70711255528416        1.08537761849537
C           24.95978682673924        0.01280303443414        0.03243015102751
C           25.60098693173463       -0.69443505832063       -1.00257961237591
C           24.96640056482181       -1.31000423005403       -2.11363891401890
C           25.93669724545760       -1.87415527154087       -2.89499514165913
C           27.19389138744798       -1.63635009787390       -2.27364922235997
N           26.93951215813792       -0.90982690663794       -1.13989050822841
C           28.45712634379873       -2.04412782452169       -2.71596468274980
C           28.51201945038584       -2.82519497365956       -3.97587772787486
C           27.83856786890373       -4.04185627957684       -4.08942888143094
C           27.89669864023565       -4.76315316326146       -5.27640487395508
O           27.25169023661380       -5.94937673562454       -5.39468861892408
C           28.62412725300446       -4.26528329985848       -6.35871335664517
O           28.65950881561029       -4.99582938311072       -7.51750666117806
C           29.29514395607212       -3.05030951829462       -6.24597414687537
O           29.98518794783734       -2.62380468584556       -7.35057461605109
C           29.24477820320848       -2.33067455661070       -5.05906340326999
C           29.66022786050747       -1.76549916438072       -2.05745119659743
C           30.95613162588983       -2.28303422334154       -2.46832558288908
C           31.85612255557056       -1.80718942523602       -1.58403353922640
C           31.11159708345479       -1.00077685415544       -0.63332641564732
N           29.79159764408016       -1.00879345930515       -0.94219437926367
H           32.79761360075189       -0.39580701897605        0.48471870706332
H           32.83308054187567        1.27214094767416        2.53068486710288
H           30.96387988732162        2.57580759098746        3.92805922623381
H           29.04534485740010        0.31590323274791        0.92523403569002
H           27.29915081169531        4.51074048977211        3.01311109267621
H           26.79898640007510        6.51835958801393        4.07987035360049
H           27.72070536064017        6.36540540774024        7.08654007511755
H           29.06447836246546        3.78420212679725        8.27979500395197
H           29.15552841209137        1.54440918885710        5.51815115286245
H           25.59223637796473        2.58442211551263        3.80001535296298
H           23.77077745735484        1.46428282087085        2.17005569623664
H           23.90290883270298       -1.30619667939166       -2.29051800419780
H           25.79621253717223       -2.40344843024854       -3.82318984638630
H           27.65645913098542       -0.58035446834001       -0.50177073488126
H           27.28667572003895       -4.44819146391540       -3.25169575421437
H           27.41448109420984       -6.29745614942724       -6.28692413236678
H           29.20583136466736       -4.51301044082516       -8.15800638646724
H           30.42267213165654       -1.77998349873272       -7.17700749137588
H           29.75714868548831       -1.37872160807746       -4.98355042996745
H           31.12711335213120       -2.93620372443861       -3.30902453296991
H           32.92181999517594       -1.97174433094152       -1.55026155106416
C           20.98293386178570        0.02846279481804       -0.02464714558434
C           19.76064659960624        0.01049459150044       -0.02776172027194
C           22.33227555385995        0.03310643265891       -0.01966472113659
C           23.55436017903682        0.03081238876950       -0.00533598403621
