120
 energy: -214.584983765392 gnorm: 0.000580803993 xtb: 6.5.1 (b24c23e)
Fe          16.90201648062645        0.03475626935069       -0.04150744936997
C           13.51629848351531        0.04628581011200        0.14419910450830
C           14.17094957734233        1.25909845579577        0.20501282185176
C           13.49924524547055        2.52035325017882        0.29437232810538
C           14.46097646654475        3.46255927410802        0.43573509278232
C           15.71895008283409        2.77302488810368        0.44294479583610
N           15.52931493862763        1.42913232329515        0.26800919490029
C           16.94572211082626        3.39490776429072        0.64845451475999
C           16.96277261411599        4.84716321129149        0.93942219555074
C           16.33116042373560        5.34485744709075        2.08150038019149
C           16.35259923877194        6.69866646927338        2.36449329924885
C           17.00372109725780        7.58472775131560        1.50107945229779
C           17.02767664707334        8.97851008590615        1.79009282901174
N           17.04653193911384       10.10453944157016        2.02632862518521
C           17.63184908902672        7.09207372620611        0.35340303172552
C           17.61243614565743        5.73611102439882        0.08015316096208
C           18.15447866441294        2.71438802801662        0.59557960378292
C           19.42692051471412        3.32496121763170        0.84276092222739
C           20.36639604801692        2.37701802063880        0.61151303348124
N           18.31674089761652        1.38990492978007        0.26627915186872
C           19.66560300338745        1.18865587317142        0.23751907399067
C           20.31167837599802        0.00663688861374       -0.14059140642050
C           19.62263218496669       -1.16568497031347       -0.47004145105927
C           20.27454478874514       -2.35910260220559       -0.90956501412685
C           19.30836145099936       -3.29743096357739       -1.05644862111682
C           18.06981327687757       -2.67514876039417       -0.69399835124806
N           18.27597831619437       -1.35644073619935       -0.36708737772306
C           16.85306419011496       -3.34165987855869       -0.64222347637642
C           16.82856236067101       -4.79426186735796       -0.93124883399796
C           16.09773775243256       -5.28751890297332       -2.01452688993593
C           16.07769919387631       -6.64258883219696       -2.29168058188451
C           16.78661022896889       -7.53417279728580       -1.48110897069237
C           16.76662787874935       -8.92944066208456       -1.76305681143969
N           16.75529135816392      -10.05709509602589       -1.99152018040062
C           17.51530703932980       -7.04572546243504       -0.39256801826781
C           17.53675907890746       -5.68858911067789       -0.12543792665720
C           15.65536104298812       -2.70537352159933       -0.33498143572569
C           14.39337609842299       -3.37948659352171       -0.22883819040049
C           13.45803439359019       -2.42616209184357       -0.00832850773025
C           14.15035909713350       -1.17349103825382        0.03007100912334
N           15.49863564904299       -1.36123318335052       -0.12963500526817
H           12.43306078531834        0.05219548004750        0.18765541691497
H           12.42933134908978        2.64784659988589        0.25103201064539
H           14.34276021943821        4.53049595989460        0.52201232458186
H           15.83566848399979        4.65885847011639        2.75914695661465
H           15.86700397886592        7.07695706806410        3.25639108210649
H           18.13349017645009        7.77674200988890       -0.32036323729740
H           18.09158305819769        5.35849216233492       -0.81602404446271
H           19.57271291725936        4.34571775126711        1.15619746676618
H           21.43872367734919        2.45947980999986        0.68505190493010
H           21.33468871957363       -2.45047874146607       -1.08274811305722
H           19.41397427379436       -4.31767362936653       -1.38737968538415
H           15.55625873405344       -4.59754715878188       -2.65176122450508
H           15.51417109383680       -7.01771802189674       -3.13791344639573
H           18.06218775861249       -7.73465331105691        0.24042550143781
H           18.09421718995196       -5.31384670618634        0.72550723870704
H           14.25479849496142       -4.44535872902660       -0.30977261559609
H           12.39317874229938       -2.54048355769661        0.11755172689685
Fe          30.32110200662461       -0.03616174520764       -0.03904166199960
C           33.70684099901730       -0.03729835585064        0.14649421608169
C           33.05231688338024       -1.24513768758698        0.27265692345510
C           33.72417777648104       -2.49968394094279        0.42959795753197
C           32.76257875878553       -3.43299419151410        0.62176440053619
C           31.50453561107907       -2.74418489279420        0.59220228515666
N           31.69398665668512       -1.41165087304035        0.34505839509789
C           30.27788378545507       -3.35422308212672        0.83126201785021
C           30.26117077598242       -4.78862514204949        1.20030021225137
C           30.89355796147321       -5.22373759849944        2.36724552308465
C           30.87250721688812       -6.56024862363529        2.72309155484413
C           30.22096889847439       -7.49179877165603        1.90930086400904
C           30.19738530446219       -8.86791189633248        2.27329140993611
N           30.17802315893560       -9.97942560171993        2.57041531799811
C           29.59210044400613       -7.06204034034746        0.73701837079530
C           29.61115302642106       -5.72284902715179        0.39077044089484
C           29.06900896998895       -2.67773618460357        0.74186111354401
C           27.79664898789695       -3.27428154276424        1.02154425353907
C           26.85701679307794       -2.34044217896828        0.73915998865924
N           28.90653244285720       -1.37299445206627        0.34146123810829
C           27.55764333311343       -1.17389843943107        0.30158835677966
C           26.91146795152252       -0.01405290038783       -0.13977803823799
C           27.60038703759757        1.13904959778675       -0.53141660598415
C           26.94819444600576        2.30707684828017       -1.03420057033123
C           27.91418099197186        3.23633210930910       -1.23136917634698
C           29.15289670644890        2.63459062326250       -0.83628151804098
N           28.94699441390134        1.33534409825249       -0.43885653621430
C           30.36963514490906        3.30294550845280       -0.82116016893516
C           30.39424433493847        4.73757957576233       -1.18910153560490
C           31.12519933096561        5.17060430901909       -2.29776050514319
C           31.14598746133109        6.50853577002003       -2.64836771607865
C           30.43773870308935        7.44343479889664       -1.88747616520616
C           30.45924070127029        8.82127663157062       -2.24500390131996
N           30.47859432971444        9.93468390024686       -2.53488895840643
C           29.70839385340459        7.01540086160760       -0.77427011491713
C           29.68623083364344        5.67486378541432       -0.43352809636088
C           31.56745752971731        2.68426552624347       -0.48022619789382
C           32.82940806850992        3.36322547059022       -0.41091842358121
C           33.76485810473340        2.42330177410208       -0.13928603994232
C           33.07263930855105        1.17448654438317       -0.03310225813818
N           31.72431357156652        1.35322372444549       -0.20246907931799
H           34.79008785587467       -0.04077304020926        0.18997510449114
H           34.79408967178141       -2.62924595920987        0.39285100737710
H           32.88092533647445       -4.49473127995240        0.76533713353635
H           31.38936501329417       -4.50200972299941        3.00645983773017
H           31.35873797752223       -6.88966711617215        3.63383398173396
H           29.09017722258972       -7.78223224409236        0.10158907927587
H           29.13145733778947       -5.39435890172185       -0.52426858375218
H           27.65096788202489       -4.27660103841584        1.38975063783818
H           25.78469891890726       -2.41906112614149        0.81690788115719
H           25.88799738419548        2.38882881220062       -1.21180324216722
H           27.80828299037514        4.23733681960479       -1.61651284989044
H           31.66626020611266        4.44661115315193       -2.89644459265950
H           31.70959804341972        6.83666182611710       -3.51385897505780
H           29.16159323577091        7.73804327147675       -0.17997942213401
H           29.12842926545070        5.34740073037531        0.43648241718627
H           32.96788247247919        4.42317201042680       -0.54939741178772
H           34.82972622832071        2.54432457602036       -0.01994231659375
C           22.93739030914066       -0.00434839625912       -0.19754640525283
C           21.71448612601333       -0.00296806080826       -0.18160819562387
C           24.28577110804448       -0.00752182510850       -0.19591047921300
C           25.50869068161381       -0.00685901256472       -0.18240756275638
