76
 energy: -128.216810719006 gnorm: 0.000548478715 xtb: 6.5.1 (b24c23e)
C            5.60348617336243       -0.09241777355118       -0.00745556326632
C            6.22634691576366       -1.33266034822548       -0.06328840619209
C            5.61303738717484       -2.61691330722346       -0.12664215276817
C            6.60576619189164       -3.55475807880591       -0.17342349857667
C            7.85667613943265       -2.87338675987749       -0.14024185911377
N            7.57651122652624       -1.53927788246098       -0.07180858666211
C            9.12482073619487       -3.43980769764079       -0.18001560129141
C           10.34708502800390       -2.78285923800596       -0.15453694251778
C           11.61953866138909       -3.47814034424723       -0.22437826207696
C           12.57503602697662       -2.52713875673959       -0.17652713310135
N           10.55051956160744       -1.44040573478570       -0.06583511040242
C           11.88544824663817       -1.25459508435261       -0.07128855703488
C           12.54893215047470       -0.01259192096468        0.01289949339670
C           11.89846928700799        1.23325927832242        0.09586176640610
C           12.50076710695021        2.51557794479890        0.20186522833611
C           11.50314986227214        3.44950202128720        0.24807059734964
C           10.25882496419576        2.76373136280811        0.17653379954890
N           10.54938272274295        1.42910361045932        0.08826510778036
C            8.99218350608185        3.33485902112797        0.19320397075108
C            7.76861964499875        2.67953899394724        0.14118719554951
C            6.48781196458376        3.36959371929746        0.16608262194597
C            5.53859222341945        2.41387781162552        0.11076107787869
C            6.24048674002435        1.14149061874261        0.05248115584213
N            7.57968668739243        1.34112019543555        0.07047136563492
H            4.51874464594835       -0.09629135836617       -0.01126750170153
H            4.54789308054458       -2.78563597108736       -0.13546761429428
H            6.49621593181343       -4.62636517312296       -0.22718240985308
H            8.26932715591942       -0.79906975713424       -0.03527843203171
H            9.15453704962964       -4.52300190093038       -0.24318647509004
H           11.73301621508174       -4.54806570643036       -0.30271298696310
H           13.64541390649120       -2.64717400114234       -0.21396191046330
H           13.56282231501698        2.69207540639658        0.24276491975198
H           11.60815954307512        4.51981052913314        0.32718195831979
H            9.86107670175127        0.68596781695394        0.02700029319408
H            8.96659053029027        4.41798446401107        0.25808157281989
H            6.36845930747778        4.44058604978382        0.21919950450071
H            4.46537468563970        2.52440567350571        0.10859016582999
C           23.52991249077456        0.09068843665636       -0.01927301050412
C           22.90705350181998        1.31350442380238       -0.23384738892213
C           23.52036454725893        2.57899911616563       -0.46153323510913
C           22.52763683411454        3.50308236568574       -0.62830737079317
C           21.27672610819680        2.83160980513628       -0.50793085381906
N           21.55688945758919        1.51732170328805       -0.26881319158197
C           20.00858202954934        3.38824169240177       -0.62007868703421
C           18.78631703112028        2.74000090661198       -0.51047680737873
C           17.51386419904986        3.42056715801598       -0.66898554847523
C           16.55836578014452        2.48357687373157       -0.49945424323283
N           18.58288104393149        1.42004042509604       -0.25018231191194
C           17.24795207324780        1.23506845043105       -0.23174010571591
C           16.58446659035442        0.01414810433014        0.01118106574573
C           17.23492803700446       -1.21074586078323        0.25338961813385
C           16.63262855407588       -2.46884594902722        0.52313052745290
C           17.63024460741048       -3.38911284578762        0.68884226202440
C           18.87457038843326       -2.71820138879037        0.52986219459462
N           18.58401434577671       -1.40594680052009        0.27099628065568
C           20.14121124214080       -3.28246595755764        0.61970672030896
C           21.36477579517033       -2.63924772849865        0.48399096438111
C           22.64558268601947       -3.32039946887845        0.59725887036647
C           23.59480343087523       -2.37969496572527        0.41970183744731
C           22.89291038533693       -1.12531543451837        0.19856877829151
N           21.55371025447813       -1.32098109185984        0.24204428706556
H           24.61465400379014        0.09403809384995       -0.02355690557888
H           24.58550900421675        2.74519113015639       -0.49194924908856
H           22.63718831930272        4.55892326092677       -0.81917781908735
H           20.86407260528825        0.78792810073653       -0.13756450452908
H           19.97886679983362        4.45436619977257       -0.82176856514161
H           17.40038782314921        4.47158578412256       -0.88401290713764
H           15.48798798741574        2.59781536680396       -0.55198567119933
H           15.57057314398178       -2.63863076914998        0.58635070188443
H           17.52523359119916       -4.44040995669529        0.90469646172083
H           19.27232132214089       -0.67682542935901        0.11483950066283
H           20.16680302876355       -4.34830131626758        0.82309042015095
H           22.76493419422144       -4.37571185473778        0.78742197960573
H           24.66802081085651       -2.48958923811403        0.43173198357693
C           13.95783928750187       -0.00506284390759        0.01429939711914
C           15.17555944066924        0.00686177989510        0.01353273361425
