506
 energy: -847.224630312078 gnorm: 0.000755802057 xtb: 6.5.1 (b24c23e)
C           78.80644179836968       -0.05349786991381        0.06040414483057
C           79.41997267020432       -1.13707675368077        0.67578338020430
C           78.77282420762172       -2.25035445312423        1.28185610581089
C           79.73861850427627       -3.08278280890193        1.77347574221288
C           81.00711769720785       -2.49964225575986        1.49248813716134
N           80.76403926628365       -1.33444595802063        0.82216014460212
C           82.27217448033484       -3.00599885709845        1.81142780370056
C           83.48475415886669       -2.40104326687527        1.47383993463798
C           84.78412197403021       -2.91405567090102        1.86981245023769
C           85.70139711229979       -2.06623297055416        1.36025611087678
N           83.63472939674270       -1.25394049873688        0.75539849223878
C           84.96111116363029       -1.03283101842564        0.66220866717169
C           85.59374485048157        0.03251493372675       -0.01051335475743
C           84.95407433468013        1.09489242933375       -0.67667137466905
C           85.59422389297053        2.14953490190150       -1.38014575524632
C           84.62416352600843        2.97646622322657       -1.87475618825620
C           83.36051861354086        2.45622208994133       -1.47944835935080
C           82.09702222570151        2.97968165003871       -1.77159414805919
C           82.06047359521573        4.24716071185779       -2.54131752204564
C           81.44325106553225        4.29651170539654       -3.79213103497154
C           81.41405639645659        5.48047212987078       -4.51340957261520
C           81.99534337429630        6.62928507585923       -3.99405148140504
C           82.60880782113422        6.58915311378984       -2.74935562123976
C           82.64460368371495        5.40577831653392       -2.02718715511816
C           80.88316164076191        2.39631321645422       -1.39310433531998
C           79.57740759952718        2.98083909991261       -1.65636750717670
C           78.66684036710051        2.12858945792621       -1.14418883968603
C           79.41524738435963        1.02981611828531       -0.55948593175026
N           80.74652568491550        1.22937684937489       -0.72003776442135
N           83.61219944323703        1.31418508421292       -0.76539808841880
C           82.30883510501718       -4.28258987747343        2.56716556893826
C           81.73434319669254       -4.37178132136529        3.83580778892600
C           81.77212130966238       -5.56582730496639        4.54025790268329
C           82.37782617223542       -6.68497830546406        3.98549512137854
C           82.94890629248673       -6.60502431121185        2.72261433138346
C           82.91753544440448       -5.41161109434752        2.01718068903458
H           77.72112033158471       -0.06291392949042        0.06983382901930
H           77.70405319988124       -2.38762824109814        1.32384398571816
H           79.59176670235830       -4.02306691660065        2.27970933189476
H           81.48682348740435       -0.71028230991207        0.47974179137987
H           84.94944814857830       -3.79503138291716        2.46855514824175
H           86.77575474181606       -2.10887755879486        1.44142089617153
H           86.66160212564105        2.25010916750691       -1.49348607926581
H           84.76747112035088        3.86367209655077       -2.46966558191571
H           81.00081476993010        3.39693974674637       -4.20533467799445
H           80.93642505594194        5.50570286370215       -5.48660784440363
H           81.97022660548505        7.55453879234801       -4.55844047619871
H           83.06119888518155        7.48445029173448       -2.33740286455625
H           83.11187845617235        5.38033355957262       -1.04892766716124
H           79.40664693318107        3.92189617793490       -2.15401926438031
H           77.59124819825851        2.21169555874182       -1.13952864321214
H           82.89259048108870        0.71812873061485       -0.36978776017321
H           81.27362493934760       -3.49495578434831        4.27731715461456
H           81.32788109792691       -5.62182838103915        5.52790631804334
H           82.40516113396058       -7.61804322997261        4.53677769270196
H           83.42082875066858       -7.47706495716870        2.28364138100231
H           83.35314903765610       -5.35402555475964        1.02590788989888
C          215.66625206856727        0.08833043252599       -0.02521696337984
C          215.04960434057233        1.11384246956777       -0.73044966728738
C          215.69333925002687        2.14549672401062       -1.46990107815191
C          214.72503330375503        2.95054242091178       -2.00067470991095
C          213.45840185473847        2.44276273968968       -1.59340971459598
N          213.70499457542905        1.33070865703590       -0.83931814303417
C          212.19177533952842        2.95200798341433       -1.90134679830037
C          210.98133244855433        2.38439220564726       -1.49761765685491
C          209.68092218318660        2.96862342582447       -1.77299520954885
C          208.76611823559981        2.13728449810489       -1.23271831606941
N          210.83461050715820        1.23257063572043       -0.78607941872621
C          209.50902235717555        1.05200777325018       -0.62162942423953
C          208.87923533524915       -0.02855709304789        0.02940892255493
C          209.52219883187925       -1.09922263586447        0.67891112593207
C          208.88571896895493       -2.20154942645048        1.30864421600830
C          209.85830792552278       -3.00682558570713        1.83325672364604
C          211.11981468340051       -2.41496299234654        1.54692579022111
C          212.38471341151939       -2.90088894575095        1.89311868814648
C          212.42506827205801       -4.14858985263668        2.69421957239800
C          213.05281665374577       -5.29024066213472        2.19370156726957
C          213.08635628222902       -6.45712907621263        2.94211453363715
C          212.49892321726512       -6.49775206397950        4.19936342240091
C          211.87472616528763       -5.36571258110160        4.70541635705361
C          211.83458012164755       -4.19834854621214        3.95789929809649
C          213.59663722339428       -2.29803862258479        1.53971483412130
C          214.90368438717820       -2.78460246013854        1.95309854913469
C          215.81173155704474       -1.94738178203614        1.41244384813037
C          215.06045401195934       -0.94413554345176        0.67872244101578
N          213.72994678001237       -1.18117591483305        0.78584539827376
N          210.86451066526777       -1.26988059636325        0.83911211514041
C          212.15016513500802        4.18963260099547       -2.71896039598124
C          212.73046534827233        5.36921047023446       -2.25071378310712
C          212.68771693186793        6.52407857200774       -3.01746696702885
C          212.07118418918014        6.51411710549564       -4.26122198139315
C          211.49410779237962        5.34378197013436       -4.73525663374918
C          211.53041575957354        4.18835476800221       -3.96945973857969
H          216.75153573658977        0.10337998661855       -0.03067451682966
H          216.76164305179034        2.24383304678280       -1.57915205070617
H          214.86903950372596        3.81644325361587       -2.62633227562545
H          212.98412489400761        0.74964744421799       -0.42463523754584
H          209.51340911318024        3.89629987159467       -2.29577531066772
H          207.69192639447641        2.23060347579753       -1.22761422665102
H          207.81894245212015       -2.35294021849292        1.34538316570327
H          209.71814239679836       -3.93448563670774        2.36373127248304
H          213.50017043157939       -5.26444362206383        1.20631927590053
H          213.57234794578039       -7.33958615641144        2.54090607576867
H          212.52762229554185       -7.41024234067989        4.78399871392851
H          211.41744489316196       -5.39086793969679        5.68835879305604
H          211.35899431492720       -3.31115322070742        4.36124688073868
H          215.07698247943037       -3.64290657775750        2.58213082044146
H          216.88729703227273       -1.97490930979346        1.49136132092104
H          211.58201354832767       -0.64677778342420        0.48336333138202
H          213.19954571057377        5.38334170416766       -1.27307871679579
H          213.13655938911140        7.43655568498765       -2.64082865681526
H          212.04001577414687        7.41729303465343       -4.86002958170494
H          211.01361086730617        5.32997370985868       -5.70726395514216
H          211.08999799918354        3.27195226651447       -4.34621948506646
C           86.99911394460017        0.04884916034465       -0.02347824785418
C           88.22349296731954        0.05944558267046       -0.04108310095346
C           89.56586722546740        0.06911763537288       -0.05365745487372
C           90.79647614147332        0.07652078207697       -0.06368244521200
C           92.13415612015029        0.08207197668514       -0.06988480181930
C           93.36498152916751        0.08486362269679       -0.07467686611893
C           94.70723187325171        0.08154935415022       -0.07439757758786
C           95.93203141748110        0.07359485751944       -0.07456112212071
C          105.59138552760841       -0.00447615736904        0.05144575178993
C          106.81644832029573       -0.01712914418727        0.06634426124812
C          108.15755592221215       -0.02551066086213        0.07811703845039
C          109.38875498616365       -0.03184186547341        0.08452685791699
C          110.72525511622086       -0.03629791191036        0.08675851546929
C          111.95650462055499       -0.03774531359544        0.08470181226531
C          113.29763225245043       -0.03616398135101        0.07578814277974
C          114.52278802635570       -0.03441838969530        0.06276388329533
C          124.17997472501554        0.02107798315396       -0.05097331967353
C          125.40522119741253        0.02032771588463       -0.05444668659812
C          126.74634085325580        0.02122232233798       -0.05562580674929
C          127.97758457563583        0.01999825888646       -0.05487809556918
C          129.31403824734457        0.01863032911671       -0.05312438006893
C          130.54531507976108        0.01675577991764       -0.05101139964265
C          131.88644473249707        0.01623113363406       -0.04822322316951
C          133.11171224278127        0.01220598738120       -0.04558356672530
C          142.76981184557829        0.04579868288070       -0.11175673183154
C          143.99500954100321        0.04877611276888       -0.12150525123180
C          145.33611548931219        0.05374213690882       -0.12784634029463
C          146.56733665049791        0.05445608539294       -0.13341559776598
C          147.90381495926323        0.05446658558922       -0.13265859722723
C          149.13507689532412        0.05250722414938       -0.12922956127808
C          150.47618415927505        0.05007708209296       -0.12145047505556
C          151.70139320451798        0.04419132832531       -0.11216278349628
C          161.35958038688395        0.01757408600863       -0.04045731683245
C          162.58483423132938        0.01485349561123       -0.04231555438932
C          163.92596770502919        0.01547311167545       -0.04351207029142
C          165.15724851377820        0.01559243352809       -0.04511013367957
C          166.49370885347781        0.01578709671197       -0.04632797218872
C          167.72493761998325        0.01604949060953       -0.04865241727723
C          169.06606589675945        0.01709220072177       -0.04886969042250
C          170.29134517758007        0.01511881140611       -0.04877022663855
C          179.94935026533585       -0.00151720763985        0.02808570097994
C          181.17452178998806       -0.00813896351059        0.03541683397074
C          182.51568371587734       -0.01116271174031        0.03848544815877
C          183.74694700880127       -0.01567499891966        0.03791582045043
C          185.08345954495766       -0.01886133368891        0.03664561215603
C          186.31468698167618       -0.02228359308145        0.03047916553652
C          187.65584044012547       -0.02530033821690        0.02271665142568
C          188.88096463097796       -0.02952467701226        0.00885563382032
C          198.54128191243294       -0.06917299819033       -0.00655226768284
C          199.76606255730707       -0.07996589751573        0.00386168232460
C          201.10814431685802       -0.08574233383919        0.01440567969231
C          202.33893014913144       -0.08739728522714        0.02286783611894
C          203.67647590389740       -0.08423186048909        0.02974116074777
C          204.90718183359323       -0.07949905932104        0.03428820299275
C          206.24954031004816       -0.07020988783772        0.03667880218197
C          207.47407301970114       -0.05179140144094        0.03574441807740
C           97.33649001559277        0.06768184921260       -0.06603532023642
C           97.96359799263944        1.22172014838259        0.44226536093737
C           97.31420311108444        2.37010264029809        0.96455767000100
C           98.27893552063158        3.26485584696225        1.33961975853240
C           99.54614379568677        2.69057144976580        1.04880511942170
N           99.30458937506747        1.45229235450591        0.51636224612188
C          100.80593422889648        3.25877469379309        1.27339018410136
C          102.02973370493986        2.63996951332807        1.01595750460985
C          103.31755309248942        3.28246306132242        1.20770653946746
C          104.25324153919215        2.37413198215814        0.86206708709664
N          102.20435779773648        1.37438391159440        0.54362654463227
C          103.53525425681040        1.18364813346822        0.45139837050616
C          104.18829278481589        0.00759428903331        0.02894690052001
C          103.55990142152169       -1.16961115594339       -0.42223703846834
C          104.20716981757575       -2.36637770749743       -0.82458956243229
C          103.24250908402200       -3.25823840354943       -1.20666174067221
C          101.97783903270454       -2.62720774777890       -1.05599682921551
C          100.71922374587291       -3.17514507432086       -1.33033240153447
C          100.70527563520228       -4.55094613102986       -1.88772288368527
C          101.30585087042391       -4.82191153529887       -3.11788113276424
C          101.29083788570711       -6.10780230556180       -3.63705650847534
C          100.68268651077807       -7.13797792348254       -2.93276889520323
C          100.08576466737550       -6.87674123924725       -1.70690651283457
C          100.09367335793270       -5.59121287303078       -1.18695814306521
C           99.49603930689788       -2.53615527618613       -1.12237736955638
C           98.21094786689140       -3.11587713446729       -1.46955891172991
C           97.27495112646399       -2.21212295481582       -1.11299887840776
C           97.99025306681223       -1.07929646561984       -0.55948954411081
N           99.32056021577769       -1.29647060358614       -0.58702218880473
N          102.22043283125751       -1.37011023135889       -0.56963135701519
C          100.82078419368693        4.63352172051434        1.83337090114418
C          100.25619423484713        5.69373123178039        1.12309236200453
C          100.27323253837652        6.97715282242386        1.64834822717249
C          100.84750269419622        7.21607708327041        2.88942074426835
C          101.40849277249957        6.16586539207658        3.60332759337278
C          101.39848088803575        4.88210636254706        3.07911966720779
H           96.24543907817842        2.48628838738393        1.04441339702548
H           98.12827969900324        4.23369034152275        1.78702568186501
H          100.02633924288244        0.80039774160772        0.22760501745953
H          103.46347202954557        4.29507854601881        1.54711562122871
H          105.32655030176213        2.47713059805012        0.86756708991648
H          105.27431956116102       -2.51880965513105       -0.81490342808821
H          103.39133144027910       -4.26761628682768       -1.55381169793335
H          101.76992434421730       -4.01597291496153       -3.67559980994350
H          101.75545477591604       -6.30572573935124       -4.59665101647901
H          100.67382080209428       -8.14308848324176       -3.33886090898698
H           99.61202884840414       -7.67855547304027       -1.15150262321049
H           99.63769368814798       -5.39089563164687       -0.22383671300516
H           98.06732032080899       -4.07775519691763       -1.93435480442881
H           96.20325657083103       -2.27728983700207       -1.21219017665550
H          101.50005167691313       -0.69120904060381       -0.34736574866788
H           99.81906160583938        5.51146762036675        0.14757134972413
H           99.83692871101385        7.79455324531391        1.08499866601543
H          100.85805808854383        8.21951535977268        3.29959480649357
H          101.85573870056436        6.34674518730699        4.57444758461093
H          101.82637413265479        4.06070691726006        3.64292308090392
C          115.92591943306283       -0.02535195830197        0.04543133025168
C          116.54987000399808        1.13144199417487        0.55260952921208
C          115.89792952562181        2.26364839280067        1.10561704736539
C          116.85908086843784        3.16985283521506        1.46238506292548
C          118.12594959531721        2.61923983244260        1.12823238447335
N          117.88849329822114        1.38200230236978        0.59125273332593
C          119.38263330735927        3.20703678750997        1.31725882362567
C          120.60759482252001        2.61053246754282        1.01633665424687
C          121.89019061899562        3.27298786126876        1.17101148060774
C          122.82925230450402        2.38096895515253        0.79336537495166
N          120.78776255548473        1.35003593575114        0.53241626550399
C          122.11813894616606        1.18065546578581        0.39989301742367
C          122.77679665880032        0.01535890085258       -0.04335079300286
C          122.15404054922121       -1.16934055549718       -0.48295933021134
C          122.80805280882360       -2.35515753919495       -0.90608369025044
C          121.84687389204061       -3.26027693365611       -1.26540859069368
C          120.57760654579606       -2.64853133861130       -1.07942377229026
C          119.32008580198355       -3.21410404390351       -1.32196020852754
C          119.31032301027841       -4.58934145534868       -1.88074579717403
C          119.88137101651871       -4.85180543185766       -3.12665356662863
C          119.86904042756044       -6.13755511884299       -3.64631278674879
C          119.29335408122215       -7.17589842281790       -2.92691156745783
C          118.72608171404734       -6.92310045517719       -1.68529645245983
C          118.73111920166421       -5.63782032004111       -1.16478874974181
C          118.09405063634630       -2.59303864012851       -1.08084285549087
C          116.80887222600704       -3.18808602288452       -1.40021284055637
C          115.86985057336443       -2.29820753422173       -1.01745635239675
C          116.58326094737754       -1.15934061891365       -0.47407547326337
N          117.91486725416475       -1.35828654985967       -0.53449371434101
N          120.81428407812608       -1.38911137654675       -0.59622897717906
C          119.39220936044849        4.57776407052399        1.88681178047764
C          118.78389114492973        5.63246028545172        1.20492699149540
C          118.79538986205074        6.91205466793243        1.73954771033251
C          119.40784984765031        7.15256830987707        2.96191245277059
C          120.01267177097991        6.10785480914884        3.64753581155106
C          120.00816593957549        4.82802181945876        3.11377379373766
H          114.83026993265514        2.36189318185092        1.21769730938336
H          116.70616104760622        4.13139422361686        1.92448522477760
H          118.61165716578016        0.74498716914336        0.27420649617539
H          122.03023237530313        4.28665985842139        1.50973681494596
H          123.90043625313206        2.50121986959059        0.76635923731994
H          123.87721584903367       -2.49172711814448       -0.92518250280478
H          122.00136074587030       -4.26633505093790       -1.61964377246812
H          120.31979854504470       -4.03964261700258       -3.69595584707797
H          120.31018811319304       -6.32897179000043       -4.61821957716488
H          119.28657556888213       -8.18081389969609       -3.33351716186184
H          118.27778456314090       -7.73125386040576       -1.11809482385843
H          118.29821956316911       -5.44373892271659       -0.18980846686034
H          116.66695242433020       -4.14952477584079       -1.86644978549768
H          114.79704470622012       -2.37708042251178       -1.09150060494011
H          120.08993450943628       -0.72201349822166       -0.35215724861374
H          118.31668913974481        5.44930171949597        0.24361689338091
H          118.32467086941031        7.72522391598467        1.19821780217468
H          119.41398787361527        8.15295858165463        3.37953941339161
H          120.48994213283569        6.28992364479080        4.60402473886056
H          120.47026973115025        4.01062462424161        3.65597296812385
C          134.51493001608463        0.01397271303610       -0.04536485516380
C          135.13859970253529        1.16582510976227        0.47327696851213
C          134.48606325881912        2.29698170001622        1.02772930246001
C          135.44771585363574        3.19432237192286        1.40495151914711
C          136.71555484831919        2.64004250202360        1.08059082226867
N          136.47791435660596        1.40895044306069        0.52963631086379
C          137.97306300626954        3.22019527696728        1.28640624461016
C          139.19784359361427        2.62408290661389        0.98365208666558
C          140.48058618072062        3.28456955385219        1.14532487660975
C          141.41932722037532        2.39706302737380        0.75642464748840
N          139.37768930421660        1.36835030355401        0.48762056330856
C          140.70807746096517        1.20021707338553        0.35276337949942
C          141.36667281222958        0.03700107916058       -0.09592697193505
C          140.74381678360561       -1.15013150428847       -0.52889699535850
C          141.39758136121131       -2.33993274494283       -0.94094020435746
C          140.43615659899066       -3.24915986943417       -1.28913201227382
C          139.16701100891501       -2.63520742796434       -1.10969285694974
C          137.90916750267527       -3.20090129376266       -1.35035016170657
C          137.89743071805768       -4.58463702677234       -1.88763719685374
C          138.47538337709784       -4.87095915859464       -3.12502962274066
C          138.46146691254137       -6.16563936533672       -3.62207658496396
C          137.87707115064262       -7.18906159516126       -2.88846496289375
C          137.30217829323735       -6.91234362249835       -1.65547712402448
C          137.30886263346068       -5.61817509856626       -1.15761135240667
C          136.68362941180882       -2.57225333881450       -1.12682951781787
C          135.39938501158431       -3.16427594555950       -1.45551700128112
C          134.46037781699610       -2.26527958190506       -1.09467351053514
C          135.17287939581320       -1.12526580850196       -0.55249572482798
N          136.50411582186584       -1.33130934863278       -0.59487923532667
N          139.40400330589705       -1.37095004764101       -0.63942192180009
C          137.98485614647578        4.58237072819334        1.87609852749354
C          137.38600372779791        5.65078424324863        1.20743155423964
C          137.39931987615094        6.92132512125100        1.76326887383321
C          138.00419018473434        7.13895671150290        2.99366387980432
C          138.60017474024843        6.08054750370857        3.66589882278751
C          138.59393812618092        4.80980270603893        3.11095093356842
H          133.41765907550817        2.40009026375120        1.12775973933949
H          135.29426696346277        4.15235588215210        1.87410019066142
H          137.20142943057351        0.77052808716320        0.21621685047041
H          140.62065274560086        4.29455101440967        1.49490966929304
H          142.49047149511495        2.51767646722047        0.72977234307277
H          142.46672987424918       -2.47672902139774       -0.95918529943798
H          140.59061555622171       -4.25904975920627       -1.63227437921175
H          138.92040203863388       -4.07059649950179       -3.70580139295178
H          138.90829213706709       -6.37578033332350       -4.58749781982052
H          137.86929581050575       -8.20096476967625       -3.27733439388827
H          136.84670868688264       -7.70863869437622       -1.07732010606708
H          136.86986100752799       -5.40518353645355       -0.18932144838951
H          135.25840282919938       -4.12974723750653       -1.91364812966245
H          133.38819541679231       -2.33927121243237       -1.18165997409884
H          138.67980882550256       -0.70144224422026       -0.40152991803830
H          136.92489978625937        5.48568796948829        0.23993714063325
H          136.93588926681213        7.74540294125484        1.23225115634944
H          138.01146034218544        8.13223164192181        3.42791884788799
H          139.07178508360710        6.24473202460781        4.62841129038152
H          139.04930654068997        3.98158216032937        3.64232984706816
C          153.10454464792969        0.03934938049103       -0.09620442449647
C          153.72787082267644        1.18840887403667        0.42896535919617
C          153.07454059859148        2.32527079505155        0.97074590463627
C          154.03630012561274        3.21697128977986        1.36080695622405
C          155.30523437453820        2.65324289551831        1.05767175322710
N          155.06777191670582        1.42281396191412        0.50511275526260
C          156.56329995289377        3.22443427260844        1.28377620923610
C          157.78863137037334        2.61906675594784        1.00233190043136
C          159.07320289551177        3.27049768417296        1.18490011533165
C          160.01186090466695        2.37632460842818        0.81139459787844
N          157.96763654057395        1.36181855084268        0.50995090341020
C          159.29883083496952        1.18440862539829        0.39646025324598
C          159.95635243182721        0.01682111751558       -0.04212938134600
C          159.33221374153212       -1.16678360235397       -0.48288906563776
C          159.98419007332379       -2.36160923200816       -0.88296160762980
C          159.02215625558301       -3.26438882210938       -1.24597762725130
C          157.75464859192516       -2.64121684813293       -1.08808951000540
C          156.49695466855812       -3.19774683455987       -1.35025388149804
C          156.48465093927882       -4.58100605942706       -1.88865958138464
C          157.08341526732579       -4.87072187791058       -3.11535295385281
C          157.06941551495680       -6.16491229674049       -3.61363354111068
C          156.46400730873225       -7.18455391783423       -2.89189077373490
C          155.86821206678016       -6.90447503082876       -1.66963474978573
C          155.87508560309257       -5.61075001976961       -1.17060106795323
C          155.27242133455152       -2.56036014765628       -1.14695707473847
C          153.98948237479883       -3.14326456155433       -1.49637038527879
C          153.05104382217257       -2.23844379452091       -1.14883297806929
C          153.76270218753834       -1.10369912778994       -0.59461484162343
N          155.09301309935984       -1.31849975488681       -0.61698286084295
N          157.99283920562249       -1.37840304023573       -0.61462638406268
C          156.57552324676254        4.58715977094872        1.87229446886542
C          155.99816392896125        5.65982800211627        1.19170559601978
C          156.01262605441119        6.93093813642501        1.74624720126160
C          156.59700713721853        7.14485771178973        2.98714770448728
C          157.17126961664832        6.08212286195316        3.67136321534487
C          157.16399907238713        4.81079106534606        3.11778448700593
H          152.00543245404288        2.43590727409205        1.05378336989453
H          153.88219756323559        4.17721034660849        1.82521532002061
H          155.79172300742474        0.77870564934008        0.20459315370959
H          159.21467487998595        4.27951415474393        1.53669917906505
H          161.08413073659520        2.48932498278546        0.80226768902169
H          161.05249233696836       -2.50602343456273       -0.88346991467820
H          159.17508637586573       -4.27575874822476       -1.58541725314598
H          157.54497946528966       -4.07322555560646       -3.68708394493889
H          157.53271937975668       -6.37763283445072       -4.57068599167821
H          156.45617261311122       -8.19611432546860       -3.28164778846238
H          155.39622684105728       -7.69782561355021       -1.10075167431016
H          155.41981670510572       -5.39532694909658       -0.21039608839753
H          153.84909237771424       -4.10721140584211       -1.95787939532862
H          151.97987592770650       -2.30509952796519       -1.25259440755123
H          157.26963221401641       -0.70344204129346       -0.38948515542842
H          155.55318873531368        5.49749203080336        0.21622481366201
H          155.56626035435193        7.75838946004617        1.20593979509376
H          156.60525947973130        8.13861976217551        3.42027228877396
H          157.62671967412891        6.24339848715082        4.64211560911599
H          157.60247321848237        3.97929216447280        3.65817464357540
C          171.69455716436707        0.01617225165748       -0.04299294417975
C          172.31677766247361        1.16904527243421        0.47501598349618
C          171.66236425265657        2.30806225811115        1.01100992134340
C          172.62306012209504        3.20637752958943        1.38826088895518
C          173.89237543831820        2.64374764432048        1.08468153361654
N          173.65628658739956        1.40803299066872        0.54347612779020
C          175.14948749709976        3.21966646125051        1.30393703284369
C          176.37582776653667        2.61206938003697        1.03201871866643
C          177.66013528728999        3.26343670583652        1.21651026292042
C          178.59984743721796        2.36443550346218        0.85748879125342
N          176.55608722606377        1.35059978335293        0.55093963081794
C          177.88767314756461        1.17058207854520        0.44670206473035
C          178.54613920275233        0.00073573167948        0.01563132169631
C          177.92312448796761       -1.18055708192857       -0.43285551953250
C          178.57620277575404       -2.37313035482716       -0.83781307579734
C          177.61548356976155       -3.27155434613507       -1.21484760681196
C          176.34768976877362       -2.64845596193194       -1.05914536912710
C          175.09107589174232       -3.20316643396860       -1.33064340720769
C          175.08241443311351       -4.57913014103694       -1.88745973915394
C          175.68505923927731       -4.84965281528844       -3.11670401144212
C          175.67469737604949       -6.13623771087310       -3.63428996974963
C          175.06904382946550       -7.16751315565505       -2.92945935170076
C          174.46978468117197       -6.90668657549041       -1.70464529393098
C          174.47314345369074       -5.62054440204537       -1.18624823233234
C          173.86545097304526       -2.57041397490966       -1.12002860647836
C          172.58275140209972       -3.15388719264838       -1.46941617830476
C          171.64305838810117       -2.25574554344126       -1.10821389732152
C          172.35382285153398       -1.12311114503658       -0.54855268297282
N          173.68459306404546       -1.33361987614508       -0.57863643692129
N          176.58428048116852       -1.38983717911250       -0.57397120979098
C          175.15837987461646        4.59016871351360        1.87425157467364
C          174.58067445057179        5.65161784890569        1.17649879568772
C          174.59188084850027        6.93091531796327        1.71186989431842
C          175.17313860286183        7.16427348155458        2.95073920535399
C          175.74720882101462        6.11273710817485        3.65218535651220
C          175.74327458316787        4.83319091668516        3.11772257038912
H          170.59330624919738        2.41607608291170        1.09804197064460
H          172.46823391934905        4.17027278629188        1.84480847648632
H          174.38086517763020        0.76387210705292        0.24461793166580
H          177.80097230711681        4.27520436622564        1.56056654559406
H          179.67233252304598        2.47572443544815        0.85440978578649
H          179.64431968858639       -2.51878939633867       -0.83290975943603
H          177.76933842813685       -4.28020752005417       -1.56187990796646
H          176.14691597865638       -4.04292427069615       -3.67510913216904
H          176.14099135837461       -6.33385565265740       -4.59313015366554
H          175.06387254070000       -8.17314168137629       -3.33432239471833
H          173.99780603022697       -7.70927515502039       -1.14886138236562
H          174.01540473462236       -5.42048675303423       -0.22390153069394
H          172.44303961560107       -4.11389422596370       -1.93925459320265
H          170.57160658509798       -2.32497713499080       -1.20732839712873
H          175.86044671163415       -0.71571784889818       -0.34835658027817
H          174.13786267321015        5.47377746620401        0.20273100328694
H          174.14544415734932        7.74945068023713        1.15820234046896
H          175.17896302355842        8.16443981397848        3.36890738552168
H          176.19994075437452        6.28925192261318        4.62155541054545
H          176.18149214132359        4.01057709983402        3.67173363741634
C          190.28422200732462       -0.03077632281426       -0.00164126730373
C          190.91460497917893        1.12498891316739        0.49949577818294
C          190.26899338460584        2.26909682130901        1.03549553629077
C          191.23562707383863        3.17103532069563        1.38785071778873
C          192.49998799368242        2.60550169650286        1.06872254615447
N          192.25508102817187        1.36424517041890        0.54430458354537
C          193.76020120511129        3.18418743144570        1.26031580974908
C          194.98249395086643        2.57208974945675        0.97886633804316
C          196.26978057228916        3.22452154716417        1.13768947092098
C          197.20416110177524        2.31793511658369        0.78393275442341
N          195.15528339178368        1.30339314972025        0.51540278197579
C          196.48581013132269        1.11875542774588        0.40028445299505
C          197.13699538110777       -0.06010246574361       -0.01572754315961
C          196.50672068570844       -1.24335219174736       -0.44718727212605
C          197.15226755095375       -2.44113461189527       -0.84929730498519
C          196.18562622033110       -3.33679448163217       -1.21738619171869
C          194.92131355873514       -2.70749753725944       -1.05735039703419
C          193.66098106799041       -3.25893281444966       -1.31816580138391
C          193.64406920239742       -4.63486780267409       -1.87497295780826
C          194.23432685910097       -4.90536351152520       -3.11023012924227
C          194.21479118356106       -6.19099560806836       -3.62988455813694
C          193.61239922734566       -7.22144780740448       -2.92105517301211
C          193.02606495588017       -6.96079562871077       -1.68996241735944
C          193.03854749905761       -5.67553521436215       -1.16947072346524
C          192.43877939487874       -2.62322254744898       -1.09704499098961
C          191.15124533720962       -3.20571103782365       -1.43022453838375
C          190.21699136714705       -2.30603586389961       -1.05896271551623
C          190.93581498737808       -1.17290543162141       -0.51065390377542
N          192.26584327242978       -1.38504909727683       -0.55628544739660
N          195.16597975925993       -1.44777720192919       -0.57953148847561
C          193.77733640481512        4.56249817810762        1.81117731386853
C          193.18523976461140        5.61299137024885        1.10880879232557
C          193.20339036867458        6.89982037471418        1.62556954400543
C          193.80618395008275        7.15187770086583        2.85041520568025
C          194.39465106306727        6.11142415649016        3.55644247252779
C          194.38363488192101        4.82432022986396        3.04051675974251
H          189.20149707182253        2.37789809273873        1.13921271539864
H          191.08822789433438        4.13927044397351        1.83763763937304
H          192.97454912400482        0.71716831559059        0.23951193792328
H          196.41598282770292        4.24170822548388        1.46301945618957
H          198.27669874819460        2.42741100011698        0.76721694705811
H          198.21979730897934       -2.59122641925891       -0.84992442165774
H          196.33293169138915       -4.34759267212449       -1.56105165356487
H          194.69357750570117       -4.09917011678864       -3.67156518718927
H          194.67112335877243       -6.38847091683404       -4.59353874872595
H          193.59972511374460       -8.22629949168351       -3.32769047250736
H          192.55688657844357       -7.76282141615337       -1.13099573975320
H          192.59074564526804       -5.47567436466651       -0.20242044016551
H          191.00464393686926       -4.16642258925073       -1.89649856054894
H          189.14432676866568       -2.37431863047788       -1.14476734411540
H          194.44645307603560       -0.76919374739174       -0.35354588029297
H          192.72546998073389        5.42049656308048        0.14573722238241
H          192.74544208088673        7.70955375241782        1.06836150163246
H          193.81747362641170        8.15793001648334        3.25410983835027
H          194.86416288375366        6.30255612327229        4.51500255423411
H          194.83293020712705        4.01047083998371        3.59858183938534
