120
 energy: -215.475119666179 gnorm: 0.000635356583 xtb: 6.5.1 (b24c23e)
Co          16.18654154324049        0.05776238282509        0.02286063611782
C           12.80141092288487        0.14904847041087       -0.00079828007267
C           13.46632728343056        0.82438187376256        0.99970197355246
C           12.80988586194995        1.54809564124165        2.04557264224363
C           13.77861386097681        2.20035716324078        2.73164634172105
C           15.01959130903149        1.87513634030610        2.09780279217179
N           14.82745499637142        0.99921470111288        1.06711530355194
C           16.23122109891694        2.49013640711344        2.41419803346112
C           16.25262505196495        3.48800139073612        3.41192885945527
C           16.27726238929488        4.34583697882161        4.26976733323995
C           16.30515364053933        5.34493743898334        5.26975482131210
C           17.49676628122964        5.99310553517620        5.61496595651891
C           17.47038042271540        6.96318273593377        6.60110160690201
N           16.36066677601010        7.31600531683635        7.24479216461852
C           15.22369889869724        6.70478271154715        6.92208791275106
C           15.14235853943041        5.72221705733743        5.95152028094495
C           17.42031232818394        2.15708030131457        1.76915534557713
C           18.67081291590926        2.79097682432101        2.04533616795993
C           19.61399114876213        2.10457889589622        1.35513306305471
N           17.58296972981784        1.12130615125651        0.88507680918458
C           18.93198100737518        1.05555010881244        0.66566786135539
C           19.59167940819989        0.03305206117237       -0.02043728994770
C           18.89876068259164       -0.98172682776019       -0.68509680637631
C           19.54481301291185       -2.05604382073044       -1.36990043748817
C           18.57307774691619       -2.73779989254062       -2.02452304532128
C           17.34179914999077       -2.07261604120189       -1.73538931589197
N           17.54494466168073       -1.02110579213584       -0.87874773364548
C           16.13487599114677       -2.38493998208730       -2.35743110882164
C           16.11253520625271       -3.40395432862854       -3.33360035277438
C           16.09585341046191       -4.27772523757594       -4.17539247322322
C           16.08063471605731       -5.29559283910633       -5.15659752331375
C           17.25171343493212       -5.97366425746990       -5.51481149536798
C           17.18539853690120       -6.96063305378161       -6.48203353257261
N           16.05536452474522       -7.30292363836456       -7.09547023140024
C           14.93779983860670       -6.66331697536901       -6.76032467861619
C           14.89640698860416       -5.66167998764929       -5.80675756043652
C           14.94867618960960       -1.71781778713554       -2.05014829395241
C           13.69716447551047       -1.99720330090234       -2.68522557598081
C           12.75798525157466       -1.27852177571163       -2.02526450350946
C           13.44179429767463       -0.56673197137285       -0.98861229739245
N           14.79397757961573       -0.80702339960259       -1.04375230169790
H           11.71802830348617        0.17678330173443       -0.00690987558277
H           11.74407639755706        1.55183079836146        2.20958145584217
H           13.68047078459075        2.85787023875031        3.58059903932319
H           18.42340980196758        5.73658347830686        5.11592646029284
H           18.38022543581654        7.48183938719265        6.88922922073292
H           14.33731426949232        7.01709470044375        7.46666264206320
H           14.19532580526194        5.24993384938214        5.72007278937072
H           18.79513134034902        3.64215739646830        2.69518426865797
H           20.67846745081781        2.27076190695084        1.31745451722630
H           20.60650770621813       -2.24251163548988       -1.35191817680641
H           18.66598519962842       -3.60423370165749       -2.65935355781080
H           18.19359407638490       -5.72624983866692       -5.04026866058866
H           18.07857979564828       -7.50227803569698       -6.77981027122095
H           14.03402978871554       -6.96772216027060       -7.28031487590610
H           13.96384196025952       -5.16648195175009       -5.56464179617738
H           13.57250687666419       -2.66923771468881       -3.51914735056201
H           11.69463799001567       -1.23241858396871       -2.19833638833666
Co          29.59544820407081       -0.04920027320407       -0.03534508591004
C           32.97997436801722       -0.07534834561549       -0.12810599799946
C           32.31476832571575       -1.28081879515912       -0.18927827504849
C           32.97021435477482       -2.55077958625501       -0.26724371285877
C           32.00127981468243       -3.47414335636694       -0.47526867140073
C           30.76116217945657       -2.76224353055867       -0.52813102896666
N           30.95390828410559       -1.42773528074957       -0.30832623988842
C           29.55052044756152       -3.34821062678569       -0.89902079289262
C           29.52922630578131       -4.71661926778214       -1.24325970700060
C           29.50461387353073       -5.89338507866247       -1.53827076054951
C           29.47697029384999       -7.26462460507394       -1.88152320964838
C           28.28583319849448       -7.89359325919321       -2.26207383198236
C           28.31239078205936       -9.23820056371150       -2.58690762291451
N           29.42184785822276       -9.97201109216848       -2.55655231397344
C           30.55835265997817       -9.38130839896193       -2.19621941080617
C           30.63948693584126       -8.04367194418651       -1.85242550727921
C           28.36235731333525       -2.62239892961652       -0.94896210178151
C           27.11249142549420       -3.18294927273564       -1.35586189455983
C           26.16920613074422       -2.23855391504142       -1.12024166097213
N           28.19939213970033       -1.33289826501560       -0.51159875310755
C           26.85049475292145       -1.11032453602257       -0.56898115892890
C           26.19094167925647        0.00112355389854       -0.03867918495094
C           26.88426070525318        1.08996739490983        0.49567922872367
C           26.23922434789468        2.22664861853024        1.07216190442473
C           27.21099786242221        3.13865357372861        1.32045015015269
C           28.44133575643739        2.55166248172902        0.89183343699776
N           28.23771498148911        1.27776449636039        0.42647916007300
C           29.64723792237884        3.24733986604748        0.83567923094129
C           29.66929775295196        4.60809776467288        1.20926668748103
C           29.68542482094460        5.77905981256249        1.52700169153135
C           29.69991066906319        7.14351310776122        1.89724459621570
C           28.52880047029722        7.79798815984215        2.29682200104402
C           28.59453905228180        9.13465732231174        2.64759919579638
N           29.72402657302442        9.83764717706061        2.62535815873660
C           30.84164954032181        9.22262492730834        2.24713052689917
C           30.88358987040645        7.89025523988599        1.87659357854542
C           30.83254466577787        2.64234514401540        0.41656231421446
C           32.08344567809775        3.33133862211662        0.32593312633523
C           33.02262186774306        2.39593698424909        0.04813278816503
C           32.33950188336821        1.14024654329001       -0.02599478307170
N           30.98742560606206        1.31085373811488        0.15313351775545
H           34.06336356714415       -0.08459228991098       -0.15460597006903
H           34.03557319941833       -2.69430638525186       -0.18207086428678
H           32.09888842454991       -4.54071126079180       -0.60005583490982
H           27.35944413250885       -7.33336509166615       -2.30026151677811
H           27.40292576543653       -9.75175297308516       -2.88518902995402
H           31.44452875184891      -10.00922362599191       -2.18246321874669
H           31.58611904507231       -7.60260175308525       -1.56461820862647
H           26.98856824387110       -4.17642553671910       -1.75576129175253
H           25.10501177224983       -2.29060602338608       -1.28439059047391
H           25.17807578185493        2.30529699256508        1.24555053589462
H           27.11855831828341        4.12682577074737        1.74155947752015
H           27.58733968488239        7.26304942537277        2.32902304746017
H           27.70132007964197        9.66754164809331        2.96067827631404
H           31.74496711982210        9.82580282388345        2.24062243021462
H           31.81612728833493        7.42895332309631        1.57477066055171
H           32.20783272260332        4.39235935438966        0.47209982927972
H           34.08565677131323        2.52117339430399       -0.08250323560675
C           22.21706974107514        0.02543027021280       -0.03634404719526
C           20.99460897241475        0.02170537143356       -0.03374611759506
C           23.56551873342410        0.01877487956061       -0.03998129244193
C           24.78805743693667        0.01811306621660       -0.03535613469775
