122
 energy: -234.830125728515 gnorm: 0.000709677789 xtb: 6.5.1 (b24c23e)
Zn          17.19699228488484       -0.06432354683944       -0.01768236646242
C           13.78830389591886       -0.07325836954841       -0.15735501614835
C           14.41897863498599       -1.29951087429654       -0.32643305231520
C           13.74545629047472       -2.55466559357932       -0.51075682331680
C           14.70461145466504       -3.50276483227334       -0.65074223512813
C           15.97734048842699       -2.83449640582805       -0.56926916578539
N           15.76879605392539       -1.50414850716978       -0.35609355965834
C           17.23116361096017       -3.44815168638554       -0.68183182115233
C           17.24670058469155       -4.90453314279494       -0.95303024499481
C           17.85722175478383       -5.78246657917245       -0.05128268272168
C           17.86132545769646       -7.14477795767689       -0.28758308714806
C           17.25419936157340       -7.63582240323950       -1.44016864590652
N           17.25117624450839       -9.06548301823646       -1.69134443818543
O           16.70717178437699       -9.45476507607095       -2.69308597413472
O           17.79107637171658       -9.77530273399608       -0.88173240719605
C           16.64770105459299       -6.77923391866313       -2.35474902337740
C           16.64498985602775       -5.41901250540094       -2.10606488613226
C           18.47091608828993       -2.80721370368888       -0.56156064249926
C           19.74674686913369       -3.42982601178083       -0.78023881287264
C           20.69306416195384       -2.47890838273388       -0.57601047089520
N           18.66687674429426       -1.49002377156934       -0.24685772526101
C           20.01046599550012       -1.26749652608981       -0.23123970567559
C           20.64376744365211       -0.05121235272977        0.09775534213965
C           19.97762712092613        1.15555348009490        0.39660356250318
C           20.62525791020852        2.36850247386750        0.79812165029665
C           19.65965504588885        3.31062816382731        0.94472432963678
C           18.40722042399758        2.68136433427420        0.63126895171117
N           18.63441757329363        1.36743878055312        0.32304463135856
C           17.15853214837388        3.31529139501303        0.66001048139402
C           17.14734575436535        4.77074581075723        0.93641378513439
C           16.46007844616715        5.27928066808947        2.04319628174293
C           16.44332519336552        6.63835749086637        2.29789324759483
C           17.11553799842351        7.49962994492536        1.43512849452791
N           17.09483929326114        8.92792083062630        1.69345556995202
O           16.49071458563917        9.31090390347808        2.66262742054548
O           17.68211953917326        9.64286264060621        0.92229354312835
C           17.80608200257123        7.01463666695842        0.32786015643991
C           17.82126277768176        5.65340673476227        0.08591870364254
C           15.92066648281612        2.69652304765314        0.44607621420638
C           14.64206447996492        3.35820763200125        0.42792574634819
C           13.70273820084165        2.40672047121341        0.20226994493795
C           14.39570090907815        1.15590685659604        0.06660225451248
N           15.73742562006166        1.36674206615214        0.20820859335760
H           12.70381986222123       -0.07630623963207       -0.20345292931102
H           12.67461100140301       -2.68309058873416       -0.52026559122290
H           14.56605641860423       -4.56353657826756       -0.78462914651707
H           18.31375313729172       -5.38940540038679        0.84970567075006
H           18.32388695244959       -7.83232694523034        0.41028783604822
H           16.18750924391722       -7.18561305172199       -3.24735743183877
H           16.18713194042768       -4.74144274524765       -2.81730018101224
H           19.89837937496688       -4.45641691591229       -1.07225724317530
H           21.76140162009724       -2.58270037409091       -0.66382724170300
H           21.68367980048070        2.47796727506677        0.96436737997394
H           19.78261936360373        4.33539952611045        1.25581333677283
H           15.95100323359573        4.59810579198485        2.71504533954930
H           15.91768894661097        7.04034199236664        3.15564180234030
H           18.31878154899309        7.70574332736213       -0.33026387369530
H           18.34419844913705        5.26478356130081       -0.78019013488316
H           14.48749090179537        4.41715804445773        0.55883386642618
H           12.63408429194195        2.53031063103433        0.12454427731499
Zn          28.13111024049385        0.06628735406319        0.00760630144860
C           31.53981577915692        0.12691233971114       -0.11837497351511
C           30.90913169140067        1.32709459498151        0.18467430125777
C           31.58263879579933        2.55978130055794        0.48448979378479
C           30.62347477832668        3.49119588555134        0.71018635091118
C           29.35075161702537        2.84113877531257        0.53507310196592
N           29.55930995539324        1.52792959939587        0.23383429632627
C           28.09692418334071        3.45223594533670        0.66077889432678
C           28.08135586042821        4.90404204498100        0.95547401184505
C           27.47087196869031        5.37977338930046        2.12065305387160
C           27.46688426611516        6.73130175168663        2.41244635138789
C           28.07395613487953        7.61871848337838        1.52804653966444
N           28.07652750812838        9.03827538851653        1.83107473207945
O           28.62046015155567        9.77473275676837        1.04832213842658
O           27.53734507704696        9.39276899457166        2.84816063605524
C           28.68052143813249        7.16757441628543        0.35904382427065
C           28.68315411744456        5.81334810569439        0.07954198130605
C           26.85717334360878        2.81297619686507        0.53190544835921
C           25.58134414369135        3.47216047250533        0.56259723246306
C           24.63503061776520        2.51404671371301        0.39533839556569
N           26.66121914854682        1.47388978884848        0.32973222350535
C           25.31763180160641        1.26172776534215        0.26086869739720
C           24.68434115925937        0.01081345855072        0.10989559345227
C           25.35048341796354       -1.21996712443073       -0.06556451931866
C           24.70284617328175       -2.49496506915847       -0.14826226114790
C           25.66845801334934       -3.42333345425073       -0.36554836528791
C           26.92088924527803       -2.72244183894701       -0.42019803593524
N           26.69368526912874       -1.38880318583084       -0.21329626692692
C           28.16958259983633       -3.32088038103312       -0.63124878610478
C           28.18077299658254       -4.77378608274628       -0.92074762794846
C           28.86803546692600       -5.66021492923034       -0.08538802296314
C           28.88477384739241       -7.01563701823069       -0.35886025278521
C           28.21257166509183       -7.49057143913395       -1.48163007817656
N           28.23331283766650       -8.91151068294289       -1.77775027733894
O           28.83726473751659       -9.62994926073725       -1.02275555810780
O           27.64591211959926       -9.28519573489623       -2.76062373973081
C           27.52205942939923       -6.62577820262470       -2.32628188440477
C           27.50688428855313       -5.27314139817456       -2.04017210545786
C           29.40744439155343       -2.66703153175812       -0.59756628222456
C           30.68604267858046       -3.27363464584408       -0.86251310439851
C           31.62537186149630       -2.30695707291626       -0.71494065853381
C           30.93241371044623       -1.09654175347203       -0.37166179067492
N           29.59068840336924       -1.34508502667293       -0.31944575394459
H           32.62430076534758        0.14700097541112       -0.15993222985669
H           32.65348213209259        2.68238995942391        0.52389403835233
H           30.76202663664194        4.52477034832160        0.98384020371053
H           27.01434066431466        4.67754778007824        2.80850875267427
H           27.00422966545898        7.10701299393729        3.31715375018987
H           29.14063324667503        7.87899308573547       -0.31611330515342
H           29.14105693094852        5.45190764366750       -0.83384854252826
H           25.42970723860669        4.53334747544131        0.67680919110846
H           23.56669244007269        2.64320318492953        0.35285139027771
H           23.64442856585635       -2.65879026795720       -0.03518511378118
H           25.54548991827177       -4.48998782400689       -0.46137236543226
H           29.37712523682810       -5.28064811793930        0.79284321132659
H           29.41040844827587       -7.70991512617803        0.28558287271429
H           27.00935783776536       -7.01968867368887       -3.19552396334180
H           26.98397680396316       -4.58810631842753       -2.69738808797870
H           30.84059792426229       -4.30440706152506       -1.13823896314403
H           32.69402603818153       -2.39237182472407       -0.83334860220916
C           22.05506866363450       -0.03553786661141        0.12050030410701
C           23.27303883111076       -0.01221785769870        0.12507505016804
