324
 energy: -570.979442921982 gnorm: 0.000745710585 xtb: 6.5.1 (b24c23e)
C           51.08038777080361        0.07803257558144       -0.00515455724674
C           51.69086493520209        1.32469406236440       -0.04963153335800
C           51.04081363582478        2.59079709672352       -0.05645919049028
C           52.00361390068191        3.55826610119757       -0.11811230732618
C           53.27303898015829        2.91362153057991       -0.16187238037718
N           53.03383284235783        1.57018287376112       -0.10717994492285
C           54.53699748720852        3.51145097445484       -0.22683057760279
C           54.57027232127709        4.99140160864207       -0.30433123821428
C           55.20625656666295        5.73763742053399        0.69079882257706
C           55.23626783532288        7.11893710859269        0.62556235052038
C           54.63135128147198        7.78342290361190       -0.44550905115444
C           54.66123832696225        9.20485306213764       -0.51640016927362
N           54.68530040908815       10.35370347098040       -0.57762364187773
C           53.99589362277925        7.04142738599889       -1.44558038387772
C           53.96496622190573        5.66041593883995       -1.37081861871845
C           55.75202423970104        2.82163195320506       -0.22440701090094
C           57.04840869180748        3.46170804763872       -0.35985044570187
C           57.96813977348819        2.47617908485061       -0.30951246491570
N           55.90547539503272        1.47326554079846       -0.11731877171211
C           57.23223918661958        1.23634953741938       -0.15352568443541
C           57.86882275340314       -0.01687375417770       -0.04529665324073
C           57.23216043251404       -1.26782895001841        0.06403367633506
C           57.87573488249191       -2.52662479727421        0.19737327934794
C           56.90835787415327       -3.49137336798563        0.25183413218139
C           55.64300674995128       -2.85015430434198        0.14452146538626
N           55.89059222071218       -1.50680282541244        0.04359735239669
C           54.38001245935379       -3.45194943973049        0.16356488618115
C           54.34683712919790       -4.93099688287750        0.24586918306529
C           53.72142800650638       -5.56709660972520        1.32110753957826
C           53.69045448976131       -6.94753359107309        1.40255364328392
C           54.28323505431904       -7.72248598068809        0.40115230382705
C           54.25110601821589       -9.14340916438573        0.48009353055203
N           54.22529797451750      -10.29209101253105        0.54385750734137
C           54.90809570873827       -7.09123523889970       -0.67849880751312
C           54.94037123758969       -5.71022579499091       -0.75034851327793
C           53.16340347596804       -2.76279597075111        0.11065086163661
C           51.85844398122555       -3.40534136956889        0.07591310331349
C           50.94585921449475       -2.41419285314786        0.03201150311755
C           51.69201489902299       -1.16804773596858        0.02731207533376
N           53.02424845979104       -1.41704002576504        0.06513316252607
H           49.99514654429386        0.08856231171853        0.00351400914465
H           49.97241795847128        2.72971218234221       -0.01282997421349
H           51.85373552729278        4.62568690571611       -0.12373290862215
H           53.75818965066696        0.85987361851813       -0.10586594337498
H           55.66555122149025        5.22661002487346        1.52935628990632
H           55.72666865937970        7.69097583949719        1.40446842111844
H           53.52975592781999        7.55270578000873       -2.27971467186075
H           53.48351005404986        5.08863790620559       -2.15620166742081
H           57.21061992608221        4.51922233033797       -0.49110484528070
H           59.04139783266943        2.55326996884214       -0.37772994416556
H           58.94345584388840       -2.66576346534385        0.24961790607735
H           57.05521575319469       -4.55280524892568        0.36725898315485
H           55.16881600515607       -0.79725439371638       -0.02882662348746
H           53.27236392586570       -4.96986231052970        2.10655938545921
H           53.20870914299228       -7.43330816778246        2.24301272219202
H           55.36483732999297       -7.68847723040784       -1.45898344326403
H           55.41350731034785       -5.22533097331718       -1.59685151416945
H           51.68892548970875       -4.47001055301883        0.07158329864301
H           49.87026664687576       -2.48734937470321       -0.00390127113989
C          132.20536107215975       -0.11173673056414       -0.00172316671978
C          131.58901818761365       -1.31532195749689        0.31502302768111
C          132.23356962011997       -2.53837401589085        0.65313370377454
C          131.26578225025884       -3.47567213060301        0.88044538646910
C          129.99850958047571       -2.85743226221078        0.67887794465953
N          130.24421830338306       -1.55490984574821        0.35023223363364
C          128.73119567829411       -3.43736311876468        0.80844936410032
C          128.69107766254743       -4.87994549547845        1.14749308576209
C          128.07623298018467       -5.31454094047803        2.32416553841537
C          128.03861458886635       -6.65960512983484        2.64460077309552
C          128.61446183306137       -7.60110713184942        1.78630712616496
C          128.57435262511009       -8.98660925522875        2.11059788819488
N          128.54494547941397      -10.10655226997677        2.37345356343042
C          129.22941869644052       -7.17177857062884        0.60649742979621
C          129.26818018356266       -5.82445087249238        0.29529465524809
C          127.51911527790288       -2.76324424909704        0.64025786538050
C          126.21763206768225       -3.40221079408380        0.72054195219158
C          125.30305912739031       -2.43466382492003        0.50376600929553
N          127.37316260407917       -1.43922185717004        0.35906003833283
C          126.04696659001021       -1.20988742511534        0.28073790943136
C          125.41733645674823        0.02516421072297        0.02356280211618
C          126.06055870435630        1.24740969737131       -0.24916939402763
C          125.42403467960024        2.49514782282010       -0.48265943370797
C          126.39626516782450        3.42700024654581       -0.71919690018768
C          127.65758695461477        2.77311660069674       -0.64599196877224
N          127.40286928154772        1.46012596250763       -0.35047336122102
C          128.92352213384868        3.34559077979377       -0.81115823558098
C          128.96485510844059        4.78580801346969       -1.15713935597210
C          129.60281601006056        5.69881921552970       -0.31374063099489
C          129.64213668812366        7.04429373170117       -0.63206060828276
C          129.04521684274945        7.50388199750984       -1.80985931657761
C          129.08657488389977        8.88737478071062       -2.14234610892434
N          129.11851795783284       10.00606484477505       -2.41026735004142
C          128.40767412181205        6.59426425506278       -2.65879163285900
C          128.36715438756744        5.25096875081555       -2.33111500126594
C          130.13639185972167        2.66132427129517       -0.67451677908620
C          131.44373379592105        3.25756676924690       -0.90338338716747
C          132.35132413535476        2.28799403045523       -0.67253097957948
C          131.59963401350839        1.09765052630471       -0.31523915088686
N          130.26905332036284        1.35742525409641       -0.33579697624150
H          133.29055545574175       -0.12844233366287       -0.00485480548690
H          133.30199154435431       -2.66917602055188        0.71664011738668
H          131.41091230627816       -4.50333367818691        1.17155362422819
H          129.52297652935698       -0.86631032172379        0.16345499335891
H          127.63935701194016       -4.58647820912148        2.99820955438263
H          127.56426372659726       -6.98844260795541        3.56180809505925
H          129.67303276547622       -7.89895272725747       -0.06349831222549
H          129.73333931158075       -5.49750954360993       -0.62790484681021
H          126.04830112710026       -4.45103920604528        0.90256735189788
H          124.22830588665288       -2.51760415912761        0.48215845803257
H          124.35753326078661        2.65119770474016       -0.46368805223545
H          126.25539960034820        4.47720456083737       -0.91607543044059
H          128.12066310468200        0.75486504554089       -0.21989331083879
H          130.05533639934512        5.34856703776794        0.60703954599811
H          130.13379928647919        7.74702841496676        0.03040698150940
H          127.94770969921639        6.94595959606860       -3.57487223013781
H          127.88423694993773        4.54725587668352       -2.99978164632285
H          131.61797242252899        4.27568865560910       -1.21215034654447
H          133.42673431816351        2.33971881024778       -0.73854590973966
C           59.27420758313547       -0.03347744044704       -0.04441835349842
C           60.49882387327269       -0.04984510298829       -0.04076248626234
C           61.84114965559601       -0.06228427566706       -0.04105486616769
C           63.07195786914232       -0.07260773786917       -0.03966217047597
C           64.40945484372985       -0.08217697099712       -0.03791681688460
C           65.64038550095930       -0.08444755427174       -0.03189618993912
C           66.98248775395133       -0.08723403185400       -0.03506757624194
C           68.20743218852104       -0.09034897037028       -0.03545292581461
C           77.87551834014504        0.00069459646452        0.00515314060162
C           79.10064616568704        0.01497480297810        0.01469553900878
C           80.44213821968765        0.02780388013203        0.02014418599017
C           81.67341211751879        0.03654304766843        0.02204449353553
C           83.01028261261283        0.04083501146148        0.02055615711315
C           84.24158207207974        0.04016480345962        0.01676440638794
C           85.58310817590748        0.03550827913622        0.01030256745196
C           86.80830863420549        0.02474750169086        0.00372134253409
C           96.47753711249246       -0.01335186453423       -0.00304232862483
C           97.70276518476018       -0.00878335565016        0.00444175059372
C           99.04430418280954       -0.00331273975052        0.00756206676496
C          100.27561460658237       -0.00011201374488        0.00815972651657
C          101.61249646384449        0.00101319386161        0.00647250696609
C          102.84379384788794        0.00067250989503        0.00233681869435
C          104.18534227225240       -0.00147952725542       -0.00385292249628
C          105.41056327086601       -0.00804007043826       -0.00913378927908
C          115.07922167239808        0.03247367047045        0.02931638616363
C          116.30404807619620        0.04723484636166        0.04181735752454
C          117.64602499379546        0.06081879248631        0.04970967387779
C          118.87692172290971        0.07126537050816        0.05298620725302
C          120.21440256686664        0.07677336074905        0.05241859738068
C          121.44526751301375        0.07569669573804        0.04891669360065
C          122.78755173645742        0.06680346262067        0.04195095664907
C          124.01214890673941        0.05037168583549        0.03339141548848
C           69.61179660348235       -0.08585491622152       -0.03785709469248
C           70.23278803970202        0.82088664824979       -0.91874696189752
C           69.57781397183122        1.73831620804624       -1.78019756298540
C           70.53754812115660        2.41135052755509       -2.48571900282456
C           71.80706405490811        1.91707817228361       -2.07989173176209
N           71.57237778282037        0.96630133314417       -1.12337486001529
C           73.06398311569203        2.32509632530364       -2.54403826011675
C           73.06869839614798        3.34311322422567       -3.62247043760386
C           72.46988679052252        3.07171245778161       -4.85498030551570
C           72.47415787256330        4.01772591167660       -5.86425470672481
C           73.07528189235609        5.26249727569152       -5.65537237337368
C           73.07753334939827        6.24004152763183       -6.69025270104728
N           73.07946511397688        7.02892658327957       -7.52794629435598
C           73.67321853249493        5.54026614466032       -4.42254393084066
C           73.67049732274690        4.58727830147306       -3.41992476837260
C           74.29310271724590        1.85537068543611       -2.07839911538335
C           75.57553337585534        2.26122787208330       -2.62567170794362
C           76.51813719110523        1.60927247138588       -1.91422679203653
N           74.47737389500536        0.95679215189021       -1.07203491409494
C           75.80988154906012        0.79889537730937       -0.94308764891781
C           76.47192084893418       -0.01933810886138       -0.00504173240535
C           75.85015405762579       -0.86925438624175        0.93057021499799
C           76.50360608519776       -1.67849355231422        1.89546699696553
C           75.54398283044308       -2.36511778409491        2.58789738981223
C           74.27613295878548       -2.00042558105268        2.05833441751435
N           74.51167136606063       -1.08580841642254        1.06702685967152
C           73.01998880621393       -2.46242377206677        2.47014648456109
C           73.01331704780075       -3.48773867729502        3.54166158864328
C           73.63109677138704       -4.72479218539136        3.34375982818537
C           73.62341920469034       -5.68389004425672        4.34066345642754
C           72.99979399887758       -5.41876146363588        5.56343947046132
C           72.99291192537061       -6.40203608430212        6.59287220956861
N           72.98745005869763       -7.19696958420255        7.42484599994997
C           72.38303381184447       -4.18084495802847        5.76780032788697
C           72.38921728457164       -3.22889167511259        4.76427529106688
C           71.79142667643640       -2.03906064432123        1.95960834225803
C           70.51118956229288       -2.58719702296608        2.37122634775304
C           69.56829616321366       -1.92208793898291        1.67238524222449
C           70.27436272197156       -0.97828197847035        0.82870277085892
N           71.60646374017921       -1.07921716813595        1.01224044459740
H           68.50905864038863        1.86423633344877       -1.84277417883216
H           70.38143889022618        3.18884756239101       -3.21549102102590
H           72.29693407928788        0.44971078559609       -0.63614129367511
H           72.01402588101256        2.10290565610136       -5.02567312757759
H           72.01332645624409        3.79716321802157       -6.81998424239279
H           74.13694013938266        6.50544046030327       -4.25587328701231
H           74.12444562338597        4.81067826662956       -2.46114104954056
H           75.71397621435892        2.94082184549885       -3.45076979758380
H           77.59021393215401        1.64825840479079       -2.02189772953752
H           77.57123608576870       -1.72015154025116        2.03849134487814
H           75.69883778184193       -3.05583145600301        3.40054020173793
H           73.78802634164538       -0.63298088970326        0.51882675095892
H           74.10434173410572       -4.93959485686111        2.39222741749347
H           74.09882164153437       -6.64391050739930        4.17701612690555
H           71.90177640703617       -3.97049266446801        6.71570733801651
H           71.92009632862342       -2.26578557107932        4.93042555385005
H           70.37461267388186       -3.38189697954093        3.08649158972897
H           68.49748348004350       -2.04481859879931        1.69997616972498
C           88.21195511785626        0.01249087266928       -0.00592502673164
C           88.84102838181282        0.89968106852767       -0.90122869883130
C           88.19460604276142        1.81662117467052       -1.76953644130054
C           89.16026049667813        2.46988857322681       -2.48560243734736
C           90.42484176239262        1.96342853070901       -2.07949244330225
N           90.18143805456381        1.02507146217804       -1.11273625158535
C           91.68514498221620        2.35191451058805       -2.55093117594273
C           91.69937233489864        3.36174430091898       -3.63704600360262
C           91.09603938807636        3.08793353153583       -4.86676143839076
C           91.11064098522489        4.02598705169121       -5.88337964687000
C           91.72682720719115        5.26504079357839       -5.68476084032499
C           91.74087268412546        6.23401948479430       -6.72760006778545
N           91.75184894534239        7.01697170615591       -7.57078598745328
C           92.32890173474108        5.54541241673335       -4.45453599119064
C           92.31581013622475        4.60033193157042       -3.44455219929505
C           92.91019190372731        1.87092176261121       -2.08582136186451
C           94.19545037816009        2.25831777775398       -2.63972783162378
C           95.13275572231748        1.60009957589590       -1.92702591054960
N           93.08725823261035        0.97667892775215       -1.07434645375607
C           94.41832826381470        0.80388070123784       -0.94883398846712
C           95.07382236963464       -0.01797329444934       -0.00934710779000
C           94.44499623387874       -0.85753443044622        0.93092062687099
C           95.09192735401020       -1.67492543987492        1.89319456647156
C           94.12618595122981       -2.34689460446227        2.59161027049921
C           92.86097394815884       -1.96385334414343        2.06901126321125
N           93.10423186621581       -1.05438001282622        1.07499742178894
C           91.60040093074078       -2.40483160944438        2.49089898152349
C           91.58602744161703       -3.43034836784015        3.56222285555800
C           92.18076797096003       -4.67748333104815        3.35699886664361
C           92.16579062811752       -5.63783373858919        4.35257399055833
C           91.55793863398311       -5.36391093922906        5.58135394142134
C           91.54290630906834       -6.34901686210113        6.60896284772743
N           91.53412498677888       -7.14530387682671        7.43960364637873
C           90.96458948284213       -4.11586397456586        5.79311137122407
C           90.97793511053359       -3.16254942608078        4.79089566490042
C           90.37515418513040       -1.96159464467598        1.99017235577563
C           89.08921254966762       -2.48508444410318        2.41572049191104
C           88.15200982735351       -1.80707554749492        1.72168703417397
C           88.86708862091686       -0.88074636845516        0.86622460848003
N           90.19841321481432       -1.00294543544852        1.03947013824405
H           87.12733389537890        1.95591509988666       -1.82909084559916
H           89.01144377347248        3.24186590218632       -3.22272661553707
H           90.90103683617097        0.50377277449851       -0.62316895273563
H           90.62861830284811        2.12328665277482       -5.02953840866996
H           90.64647456623312        3.80344147679124       -6.83702934909552
H           92.80425931565880        6.50625127362365       -4.29578317783581
H           92.77336844090641        4.82568159722098       -2.48794235932128
H           94.33919043985027        2.93099644546864       -3.46956249949155
H           96.20484407158438        1.62591375644431       -2.03841255728667
H           96.15961905008017       -1.73211714777956        2.03024276960893
H           94.27539286346207       -3.03904242680940        3.40408644541944
H           92.38433294102698       -0.59179990218584        0.53000513307497
H           92.64160039506639       -4.89879583188826        2.40087373712193
H           92.62308498650684       -6.60562896515797        4.18323022497972
H           90.49566989271131       -3.89875094953264        6.74566368285897
H           90.52708301559383       -2.19175748526253        4.96276987961502
H           88.94490245188626       -3.27346810541198        3.13642037102961
H           87.07952862468092       -1.91105751155576        1.75935013692661
C          106.81432148598731       -0.01269137494985       -0.01576435087978
C          107.44021841978939        0.87872243706503       -0.90900273770592
C          106.79020840993131        1.78887431752210       -1.78193840843619
C          107.75366845633243        2.44960787347784       -2.49396115089309
C          109.02067644648015        1.95543152077449       -2.08009907629103
N          108.78051075213966        1.01568229373211       -1.11377708206854
C          110.27976613576413        2.35718523372542       -2.54293071179759
C          110.29108380683272        3.36570275015757       -3.63033058068556
C          109.70223181131682        3.08202237880447       -4.86481044192493
C          109.71586097495654        4.01751901016837       -5.88378406626140
C          110.31629089251064        5.26389934410921       -5.68276480305562
C          110.33008164581260        6.22975912603908       -6.72849041844254
N          110.34114728644204        7.01028308921445       -7.57395281609033
C          110.90308185488830        5.55443112682624       -4.44751770156802
C          110.89116261678070        4.61186183381728       -3.43515678993874
C          111.50676186059931        1.88993819280968       -2.06849007408914
C          112.79187206087910        2.29387610922195       -2.61085592591922
C          113.73094482579208        1.64458986534739       -1.89236446159446
N          111.68578675728234        0.99517698598321       -1.05820386905690
C          113.01794009560760        0.83659602154137       -0.92283678463893
C          113.67506888105981        0.01490122929887        0.01507239961173
C          113.04907598282682       -0.83777473899209        0.94497068653371
C          113.69841436966034       -1.65634570076457        1.90469427842176
C          112.73517488699942       -2.34087973595811        2.59421057003952
C          111.46913351889648       -1.96452915224013        2.06864007170881
N          111.70923734013381       -1.04683275244477        1.08162180704087
C          110.21022419431965       -2.41703094528034        2.48352335678945
C          110.19997700747089       -3.44869846398273        3.54898800953417
C          110.80482383567930       -4.69008019884244        3.33838982920329
C          110.79496589445428       -5.65600444627337        4.32861277427571
C          110.18203828385515       -5.39359626927259        5.55738054762342
C          110.17331333658767       -6.38384445571175        6.58009605150595
N          110.16710913856633       -7.18461568716915        7.40645077681156
C          109.57823878221656       -4.15147140732591        5.77441509614725
C          109.58665192319990       -3.19251484766468        4.77753195561613
C          108.98374100747507       -1.97922463455515        1.98126183232963
C          107.69971794463214       -2.51196564503807        2.40120954759656
C          106.76044770232618       -1.83672159859630        1.70731495761812
C          107.47243509714016       -0.90328515915659        0.85690476370224
N          108.80387974465293       -1.01801468515391        1.03364742555281
H          105.72205436579573        1.91844066944057       -1.84738236040833
H          107.60198692057948        3.21905078920403       -3.23316276737232
H          109.50219414877473        0.50138899964103       -0.61988959650755
H          109.24727027803711        2.11172778043619       -5.02931923760378
H          109.26340590164351        3.78722095716324       -6.84121540784434
H          111.36593158046237        6.52104214845930       -4.28684878350562
H          111.33701585718826        4.84489102168754       -2.47486837994319
H          112.93461744947598        2.97077919728728       -3.43741375771578
H          114.80352269985673        1.68318569401453       -1.99495245169000
H          114.76591757028929       -1.70557391114316        2.04624040411888
H          112.88647035198230       -3.03712778763863        3.40278762442779
H          110.98790818971167       -0.58657690275459        0.53655525447798
H          111.26987160596506       -4.90244315462638        2.38227589316882
H          111.26044779623122       -6.61915636399948        4.15514599143712
H          109.10536833369490       -3.94328979604648        6.72701184029691
H          109.12795919928155       -2.22618320188671        4.95374336195243
H          107.55807518662492       -3.30388330076494        3.11856144963866
H          105.68849237208761       -1.94714291348009        1.74162103994190
