378
 energy: -591.458261535060 gnorm: 0.000413655010 xtb: 6.5.1 (b24c23e)
C           70.25412369244344       -0.12682443213672        0.05858041629559
C           70.86068407303841       -0.24555204561305        1.30280976047786
C           70.20509492797852       -0.35686392197308        2.56027568247343
C           71.16512806499364       -0.46057344290547        3.52813580158934
C           72.43800458048315       -0.42925993504187        2.89154472123692
N           72.20342960796245       -0.28647701633746        1.55304221997592
C           73.70020953218865       -0.51102716398144        3.49380851288699
C           73.72527752165206       -0.70338278972705        4.96152486962993
C           74.36522711504010        0.21317883374043        5.79764293908028
C           74.37560157418760        0.04613521445890        7.17052769313975
C           73.74680998691845       -1.05663722258126        7.76800075026390
N           73.80070706467284       -1.26079494057458        9.14402299765303
C           74.12966113570110       -0.10834189567156        9.98330056279769
C           72.79905343146869       -2.15408566859527        9.72817686979102
C           73.12091764286400       -1.98669680865436        6.92428755528374
C           73.10615602289496       -1.80594765278725        5.55329707480438
C           74.91583718419200       -0.42712878713061        2.80903232577744
C           76.21335761036238       -0.59093056106660        3.43828468219286
C           77.13401494862720       -0.44039827504020        2.46288443542089
N           75.07020743687072       -0.20467959240377        1.47402466991275
C           76.39771373515471       -0.19609898479557        1.23841828026987
C           77.03531289602918        0.02222277735764       -0.00062176443347
C           76.40033489831889        0.21682651813965       -1.24299232158806
C           77.04550708627667        0.48034729250464       -2.47952967854803
C           76.08071312862519        0.59973191936917       -3.44210521228961
C           74.81607476605784        0.40050625139577       -2.82363479560722
N           75.06102703420571        0.18248080542806       -1.49285510979375
C           73.55575261483591        0.43767877559848       -3.43242164913299
C           73.52190256733162        0.65526902654690       -4.89548396599849
C           72.82645948068351        1.73461131188757       -5.44442543419874
C           72.79457779420258        1.94777698074896       -6.81020205832601
C           73.45583405687761        1.07911054165933       -7.69183238207546
N           73.37495287780236        1.25541352081587       -9.06975481142625
C           74.37310446327419        0.57500265286757       -9.89542755324635
C           73.00448465775504        2.58447009315736       -9.55749361651359
C           74.14087486059024       -0.01366466987505       -7.13924911840280
C           74.17715127051541       -0.21256617157190       -5.77110192004513
C           72.34057152676661        0.28471999102586       -2.75376682276518
C           71.03990474599911        0.24921755776910       -3.40348861216250
C           70.12632432194296        0.09394466497018       -2.42355613225120
C           70.86822193550599        0.02210733955234       -1.17792715497075
N           72.19888226185613        0.12912192799834       -1.41621353456826
H           69.16894178180863       -0.15353484243641        0.06336609563930
H           69.13510557439744       -0.34884513463841        2.69507740181026
H           71.00906822020356       -0.54072291650212        4.59174073725371
H           72.93148809887367       -0.21449293227692        0.85015092264155
H           74.84273691694166        1.08631012678799        5.36627736491016
H           74.88233737438053        0.79001383892289        7.77167009160640
H           73.43990266011238        0.72554018852523        9.81130931737335
H           74.07517603182708       -0.40710143544997       11.02961758297961
H           75.15019697290154        0.21513593695755        9.77642239608784
H           71.78192534427212       -1.84550700706640        9.46234793988092
H           72.97108410923798       -3.17392572238176        9.38245299101622
H           72.90416978033556       -2.14227413013370       10.81244329088919
H           72.64279658077457       -2.86946418666652        7.32899931112166
H           72.62473186232309       -2.54901254488742        4.92648467158165
H           76.37705895394711       -0.81016275201963        4.48100521767659
H           78.20840151100914       -0.49556346946043        2.53768297068293
H           78.11212661378207        0.57342772208203       -2.60613239588582
H           76.23000634886493        0.81918160294073       -4.48671756633244
H           74.33771109399081        0.03127833913982       -0.79742898944318
H           72.32111366927298        2.43381609864592       -4.78697769889924
H           72.24322862752926        2.80199446591404       -7.18151094639040
H           74.22656576181915        0.86324101899277      -10.93577750631929
H           75.39279844575701        0.83524301843043       -9.59048494453007
H           74.23570738903754       -0.50420727200703       -9.82068998078912
H           71.97637396752228        2.80683159175791       -9.26994504230322
H           73.06009513725211        2.58967789065593      -10.64548869660001
H           73.67035510083413        3.35849726049326       -9.16006834668945
H           74.64954983429115       -0.72850940670679       -7.77315181768121
H           74.70353950862815       -1.07455665542118       -5.37533849745550
H           70.87263885721116        0.31649223284458       -4.46648541634875
H           69.05300039564511        0.02107964992402       -2.50603522204361
C          130.81670602556929       -0.11391124751007       -0.11362530125629
C          130.21094891639865        0.05413785197511       -1.35252561652855
C          130.86731304109782        0.22903640876909       -2.60233786201359
C          129.90786226312932        0.34853506642240       -3.56892090601584
C          128.63452469758661        0.23720219400176       -2.94223476331514
N          128.86831707778663        0.07323820778400       -1.60602729340082
C          127.37271464931702        0.29538822827116       -3.54802016580529
C          127.34950581610488        0.44242027265556       -5.02108439657811
C          126.71516812902092        1.52861688322006       -5.62652236660966
C          126.71116316880318        1.68167175780431       -7.00099280579592
C          127.34064146181213        0.74401163442070       -7.83356361218132
N          127.29397642438616        0.86658952201722       -9.21972695095652
C          127.00684468956051        2.19363220870243       -9.76610152558391
C          128.27710348044170        0.10724458905416       -9.99349714200708
C          127.95818479681138       -0.35846051409758       -7.22409063774163
C          127.96705672528921       -0.49757615926657       -5.84807366861672
C          126.15660234160916        0.22322986117779       -2.86288127946530
C          124.85956937148210        0.20620027581921       -3.51384762215509
C          123.93815419768934        0.13281763730862       -2.53031275276792
N          126.00122930183086        0.13914733695745       -1.51222937952735
C          124.67351716208709        0.09533066217501       -1.28170404927964
C          124.03532495459834        0.03522503993565       -0.02537868463433
C          124.67004441462618       -0.04842546535043        1.22956345638345
C          124.02482577416454       -0.06267958886539        2.49374952771763
C          124.98909679060591       -0.16584231933854        3.45873536632993
C          126.25332751633583       -0.22999891931574        2.81137469880986
N          126.00889002614504       -0.14399880059192        1.46552885917881
C          127.51283142472030       -0.33976814763515        3.41311282462937
C          127.54495659328725       -0.45936192262530        4.88738743809501
C          128.24712168434232        0.46186787418713        5.66718449295280
C          128.27610230940880        0.36059605455800        7.04593597176165
C          127.60456520011179       -0.67894192340927        7.70715937992775
N          127.67861464477865       -0.82088841436026        9.08946680689084
C          126.65106442527042       -1.63824959362614        9.73606624703166
C          128.08413325257055        0.35046717771982        9.86675232222939
C          126.91363238178404       -1.61330969722310        6.92066380621765
C          126.88048690368542       -1.49767215661844        5.54302278531444
C          128.72817595326487       -0.34314673172102        2.71778801528496
C          130.02760033525072       -0.53257233136207        3.34285632484450
C          130.94196355063758       -0.46502260285661        2.35370650868852
C          130.20162358327397       -0.24789874852792        1.12411835989309
N          128.87112838720887       -0.19153755917537        1.37991200089918
H          131.90181358446225       -0.14183104977052       -0.12394666759007
H          131.93741384480802        0.26548630647370       -2.73142531294566
H          130.06464105428248        0.51045300097704       -4.62307072202571
H          128.13986586094830       -0.01423020098598       -0.90531181513017
H          126.23733958617346        2.28052320508108       -5.00785565607859
H          126.20815168213439        2.54479036700531       -7.41759279830704
H          127.70725662067723        2.94532800701024       -9.38540090713439
H          127.08263772455408        2.15231203029706      -10.85212568109907
H          125.98757338296430        2.48304346754237       -9.50860222686379
H          129.30087334051743        0.33052505564404       -9.67310799295884
H          128.08587810063671       -0.96039227321872       -9.88113244480195
H          128.16907628196375        0.36091077952893      -11.04748704031233
H          128.43622480164495       -1.12646657726101       -7.81843613916597
H          128.44361417530405       -1.36656350606831       -5.40697106739358
H          124.69688987247812        0.22844127822399       -4.57930692058204
H          122.86378216394746        0.09671871163745       -2.61628714289976
H          122.95858872461065        0.00587924260760        2.63795527069463
H          124.83978168013034       -0.18337821246147        4.52600315293317
H          126.73213265597504       -0.14120035527243        0.75380000665771
H          128.75967060681782        1.28765221063634        5.18565115539937
H          128.83200404822290        1.10496296996917        7.60126075356720
H          126.78145896753375       -1.58096530958772       10.81611462062393
H          125.64331577041726       -1.29523470290617        9.47701576328652
H          126.76850915774907       -2.67995820016346        9.43550469882616
H          129.11575053043316        0.60948555390971        9.62656314121173
H          128.03528607028616        0.10457896546146       10.92697953961138
H          127.43541084508232        1.21063878329699        9.66710275305677
H          126.39893766504110       -2.44946626516986        7.37627298591689
H          126.34946937082037       -2.24386295550303        4.96168205102519
H          130.19346865874897       -0.71023623850112        4.39327850730658
H          132.01479575737665       -0.56016496858013        2.41786090071438
C           79.66282649852350        0.08433674156286       -0.02790714030867
C           78.44045332994878        0.05337014726354       -0.01223298275330
C           81.01131892454589        0.11568824493844       -0.03518947731214
C           82.23400673201920        0.14224922561356       -0.04223133738145
C           93.12571654017424        0.22416629351283       -0.01275680902697
C           91.90239668778808        0.22860763392565       -0.01040677575953
C           94.47418503796025        0.21969362406913       -0.00746533582190
C           95.69757814076928        0.21651546897294       -0.00740807586924
C          106.59536443939358        0.20994794350398        0.02284548990900
C          105.37201716546983        0.21163111244621        0.02096864377226
C          107.94382656033707        0.20545400946825        0.02942116437378
C          109.16717791913531        0.20304994650111        0.03201258747018
C          120.05922782739184        0.10662695373902        0.03438633312046
C          118.83645427009046        0.12432540066563        0.05118120413204
C          121.40780958092100        0.08388022393607        0.01846869340282
C          122.63018001763865        0.06155179548378       -0.00716706015717
C           83.63820975976613        0.16944507678859       -0.03862644570918
C           84.26142539372916        0.08442607497544        1.22233775648379
C           83.60958949788960       -0.05964274825583        2.47326984027245
C           84.57000971160177       -0.07360372863673        3.44873686097192
C           85.83598832735343        0.07191197959440        2.82055318444659
N           85.59938414273671        0.15025207707932        1.47381632000097
C           87.09124197451092        0.11626380021525        3.44320159113597
C           87.09394509378617        0.07503145810064        4.92333357362753
C           86.42339234686173        1.04460313940033        5.67129862810919
C           86.42047348705940        1.00874470680480        7.05371128395441
C           87.07881718764349       -0.01601329243266        7.75019728007522
N           87.11440399959737       -0.03000373302023        9.14165406900350
C           86.08205976722006        0.73137388587336        9.84639418571730
C           87.46971747201610       -1.29176127183489        9.79211224057256
C           87.75830067953531       -0.98501197098380        6.99652908947111
C           87.76600372214119       -0.93461169628216        5.61457355914003
C           88.31812101722169        0.19346214468039        2.78025262359034
C           89.59724593356533        0.30886350664204        3.45645183623368
C           90.54032647261914        0.33426635226953        2.49114205002446
N           88.50385083473613        0.17952475193078        1.43080250912166
C           89.83509983570747        0.24880848892467        1.22854293170690
C           90.49821405452279        0.23064149162916       -0.01600077631706
C           89.87578378861099        0.21426059241821       -1.28044175764012
C           90.52940630273162        0.15570825895391       -2.53737766226289
C           89.56886246459669        0.17917858733434       -3.51259571443507
C           88.30055856106750        0.26404895357873       -2.87796139828922
N           88.53672982594051        0.26991568762308       -1.52858062949724
C           87.04407730203170        0.31922332117785       -3.49713955609898
C           87.03624828656915        0.35352078708796       -4.97722682214806
C           87.69052430630957        1.36695382620063       -5.68020061786082
C           87.68182621052186        1.40107686150851       -7.06260738759840
C           87.02709901160821        0.40675139002926       -7.80536781260065
N           86.97842970405225        0.46796735500554       -9.19497802043244
C           86.59497393489610       -0.74870571883888       -9.91113620134881
C           88.01669414657098        1.25106168750226       -9.86705954022229
C           86.36564617656285       -0.60756738519610       -7.09677199036306
C           86.37002718726967       -0.62758192387741       -5.71408607253622
C           85.81641125169995        0.33939087221252       -2.83043292271393
C           84.53504142754498        0.47491071062499       -3.49889691994720
C           83.59229142725368        0.42836448186678       -2.53402279776167
C           84.29959488835794        0.27818966205233       -1.27885721587338
N           85.63201564274537        0.24312302944697       -1.48459087843807
H           82.54281685795033       -0.14693681184122        2.60237008074219
H           84.41529235023962       -0.18733382707045        4.50925750863025
H           86.32242331804557        0.23580190288489        0.76732986363921
H           85.91450183106211        1.85564154377005        5.16140795916214
H           85.90174534425627        1.79666319804109        7.58445508120584
H           86.18434967349941        0.55825512596965       10.91710434794670
H           86.22189156316806        1.79681511847919        9.66088807573402
H           85.07639978964404        0.43448994803558        9.52868121267397
H           88.50474184111479       -1.54436015895138        9.55990564882184
H           86.81348491789819       -2.10852403274305        9.47145757119132
H           87.38555812108117       -1.16849727064910       10.87130098855419
H           88.29187292506845       -1.79238300446789        7.48123731850417
H           88.28377502078351       -1.70866031855974        5.05854695757835
H           89.73431673773429        0.37830401515809        4.52342821220156
H           91.61049495946264        0.41443472124906        2.59726769098181
H           91.59757832233325        0.09631927018177       -2.67070161536830
H           89.72527622838899        0.12929424366226       -4.57778484513787
H           87.81245898484423        0.29943614389053       -0.81879330010736
H           88.19389780526025        2.15753006680110       -5.13401888253161
H           88.18636180623027        2.22099819612739       -7.55742800381193
H           87.25396009222317       -1.58803761285225       -9.66218385261974
H           85.56530038045622       -1.00877448098808       -9.66416276899425
H           86.64786670427381       -0.55838211275569      -10.98260071053750
H           89.01951588961164        0.93426998459046       -9.56010379943994
H           87.91533632321644        1.12249233596054      -10.94407952972393
H           87.88431146459632        2.30906880239218       -9.63822033019246
H           85.83768750349491       -1.39623136382966       -7.61705999538051
H           85.86612951629913       -1.43513214386524       -5.19410187428415
H           84.39578866920760        0.60640229592215       -4.55971697749548
H           82.52089576877269        0.49790783284119       -2.63526692115444
C           97.10171199025615        0.21608176284772       -0.00294583166631
C           97.72517401028976        0.14424483010083        1.25901890392417
C           97.07321382041806        0.02661182091378        2.51251344910298
C           98.03512937646411        0.00611933526341        3.48649352910222
C           99.30238306210147        0.12271349310536        2.85484663302308
N           99.06451357223538        0.19024780842606        1.50758736267149
C          100.55924593989143        0.15271953332859        3.47521951014691
C          100.56512625931279        0.11993000800012        4.95550326374890
C           99.90935392323389        1.10149850150516        5.70099677514592
C           99.91169143175662        1.07252434015170        7.08348563007845
C          100.56100256421374        0.04378545040442        7.78277225161128
N          100.60024443656624        0.03926417811068        9.17407977375740
C           99.55921185733916        0.79321270113926        9.87465543926931
C          100.97359865935667       -1.21206910285890        9.83373162287375
C          101.22617599872902       -0.93694930892736        7.03168943093996
C          101.22825300346730       -0.89382174198613        5.64944757817672
C          101.78680855758846        0.21012577335239        2.81115699770998
C          103.06684529080955        0.31883421989565        3.48691255515840
C          104.01023520472835        0.33183121141819        2.52169298657099
N          101.97271358852767        0.18551161373759        1.46199516479867
C          103.30462833197974        0.24363266812997        1.25963231021468
C          103.96788462020234        0.21382127913237        0.01546474718005
C          103.34462263643596        0.18576641958631       -1.24826921285492
C          103.99646351109776        0.11171488824246       -2.50517717184548
C          103.03445020768152        0.12522548678626       -3.47918671175288
C          101.76725088909619        0.21967091993874       -2.84371955504534
N          102.00525730440391        0.24069954627290       -1.49496528945048
C          100.51038537354013        0.27015492840943       -3.46262592391542
C          100.50467032806756        0.28800400662989       -4.94333515400793
C          101.15548425568518        1.29782429161569       -5.65446868488682
C          101.15280295460956        1.31689998330269       -7.03723046759924
C          100.50852463256030        0.30974205799055       -7.77157496939448
N          100.46684116589064        0.35146680962953       -9.16225101264955
C          100.12141097121179       -0.88618890130543       -9.86223984708779
C          101.48802814535028        1.15186870206579       -9.83960026414552
C           99.84892198966403       -0.69998416895153       -7.05462224880686
C           99.84661485414894       -0.70462547727228       -5.67175252989611
C           99.28275279142328        0.30425304592743       -2.79718657288974
C           98.00269380175217        0.43406360902459       -3.46918620942835
C           97.05923833531462        0.41543309935933       -2.50412582913761
C           97.76479977926199        0.28649891197648       -1.24551956248540
N           99.09673790569427        0.23511874451290       -1.44958218376651
H           96.00532850351463       -0.04084736651152        2.64428790922126
H           97.88020005305583       -0.09352025018394        4.54839323852816
H           99.78731531307143        0.25507055841928        0.79864334078391
H           99.40914732963343        1.91658536286044        5.18900983801402
H           99.40590874761229        1.86972838033980        7.61291285265870
H           99.65111763324526        0.61269308024379       10.94503623381060
H           99.69730615205177        1.86044938440618        9.69795117007168
H           98.55783349558548        0.49556019707076        9.54466596109300
H          102.00575122988366       -1.46164986568559        9.58615729860016
H          100.31643223410134       -2.03672766582656        9.53575691426985
H          100.90830243351556       -1.07497511679045       10.91260015733083
H          101.75176720653710       -1.74855969272932        7.51798801567187
H          101.73439592299326       -1.67689628485222        5.09533224450487
H          103.20462160731211        0.39378481026565        4.55340375805373
H          105.08097063228762        0.40426474175177        2.62756251615209
H          105.06434277310589        0.04881306771078       -2.63928194764809
H          103.18910661151598        0.06285298790381       -4.54397490853623
H          101.28254335722437        0.28093711268625       -0.78411625035000
H          101.65237249567127        2.09681352171658       -5.11462450442008
H          101.65532822305074        2.13421309599753       -7.53828609255008
H          100.79034050664879       -1.70748227391564       -9.58185172402770
H           99.09161692623573       -1.16123463453371       -9.63233283338518
H          100.19450299778251       -0.71650826129048      -10.93593299188825
H          102.49791164053379        0.85564245447847       -9.53502357148581
H          101.38557624263767        1.01807297131693      -10.91590461016806
H          101.33556154208455        2.20773208216346       -9.61366397922929
H           99.32688794248855       -1.49650308906654       -7.56893005121372
H           99.34407854515938       -1.50859115650767       -5.14495043466212
H           97.86509389715695        0.54312745964430       -4.53276278458457
H           95.98845915793981        0.49068109719114       -2.60763435671181
C          110.57137309403265        0.19882745423444        0.03651265436004
C          111.19469105597220        0.12769297340020        1.29855402499800
C          110.54178899104382        0.01851402580790        2.55248422165909
C          111.50325667384212       -0.00493281978319        3.52677194402225
C          112.77146212592622        0.10070161245540        2.89501735399914
N          112.53423667444731        0.16597885221386        1.54740656991663
C          114.02842564496481        0.12167361016576        3.51523706856785
C          114.03551567672037        0.09407897612473        4.99569883416469
C          113.39176656653433        1.08583245685759        5.73807403271226
C          113.39862812435584        1.06458848777852        7.12078568653949
C          114.04038188455897        0.03357282336623        7.82357657306459
N          114.08795248671672        0.03578212870083        9.21467543894180
C          113.07294990415022        0.82086856760871        9.91874510175990
C          114.43185680583058       -1.22215635429423        9.87826287143925
C          114.69175300604057       -0.95872507351955        7.07543955690182
C          114.68974973162732       -0.92319046819804        5.69301302592083
C          115.25605716270529        0.16591891056511        2.84991800989294
C          116.53825222519889        0.26213497766070        3.52361972153106
C          117.48026817803164        0.26319875069885        2.55694579567121
N          115.43945471640012        0.13746687063525        1.50075832209539
C          116.77175848934802        0.18096821669683        1.29612923296007
C          117.43209448227215        0.14368450925445        0.05123373547778
C          116.80811223032228        0.12385040960499       -1.21210511336003
C          117.45990760171621        0.04663747852838       -2.46895790789331
C          116.49867214668734        0.07128196089473       -3.44333266932775
C          115.23212574319865        0.17558267934197       -2.80811652018218
N          115.46946343646971        0.19159142381628       -1.45929575136238
C          113.97585926136486        0.23665410424328       -3.42727245670028
C          113.97244687568275        0.25804696578431       -4.90784731509134
C          114.63467118241067        1.26366586205641       -5.61457267263807
C          114.63981972744010        1.28379342273972       -6.99720890003860
C          113.99222300783920        0.28193057852540       -7.73590480906375
N          113.96236460890219        0.32531987713862       -9.12700521421616
C          113.59655270523216       -0.90398690299569       -9.83105274424669
C          115.00898054731184        1.10201422966116       -9.79368005567968
C          113.31934296329928       -0.72215006223224       -7.02358186075054
C          113.30959033927429       -0.72801340919626       -5.64064097717684
C          112.74907394476269        0.27664674019311       -2.76094692118302
C          111.46881274427660        0.41233266127286       -3.43116243787907
C          110.52663557392330        0.39717775336245       -2.46478679096114
C          111.23337151884090        0.26511917475648       -1.20701391494540
N          112.56463597717091        0.20799952717039       -1.41299551438097
H          109.47343724800783       -0.04138955536919        2.68419091737181
H          111.34767053189169       -0.09987514380839        4.58902450044399
H          113.25796127045595        0.22360726069338        0.83879188679496
H          112.89764204634865        1.90290524757114        5.22334737071669
H          112.90189967261796        1.86954493115024        7.64699881057556
H          113.17870274667884        0.65559823027013       10.99034674534094
H          113.22940422552101        1.88213159987659        9.72279916384030
H          112.06063586373676        0.53805484384006        9.60955371794515
H          115.45938171827487       -1.49470819469844        9.63554633126095
H          113.75822117015542       -2.03276492361144        9.57869443864225
H          114.36486526720908       -1.08202606319266       10.95661629885099
H          115.21091316806228       -1.77272183203248        7.56469949510628
H          115.18607605859155       -1.71441592000907        5.14160028712059
H          116.67846867267643        0.33712731333569        4.58980038105049
H          118.55195305609237        0.32414688841862        2.66075109251115
H          118.52719725371681       -0.02558509616930       -2.60288819107818
H          116.65347264068167        0.00988432466027       -4.50813606155759
H          114.74642608538147        0.23688353279667       -0.74908342932384
H          115.13499307369965        2.05814610036877       -5.07124719622851
H          115.15099487541760        2.09765427226180       -7.49517438604133
H          114.25278316313212       -1.73702389833267       -9.55517701419483
H          112.56287248944960       -1.16325813845284       -9.60053432801777
H          113.67051630127175       -0.73093144112558      -10.90417618888196
H          116.00789600957816        0.79064216237739       -9.46886880828245
H          114.92301206917364        0.96049016554464      -10.87040684410912
H          114.87168277648904        2.16241757611864       -9.57937159090168
H          112.79400260580498       -1.51432781601749       -7.54118808451008
H          112.79817649782653       -1.52868863811442       -5.11739088524893
H          111.33039178649219        0.52199061852771       -4.49457819783371
H          109.45606610121116        0.47697312393123       -2.56694564226273
