156
 energy: -242.468299963590 gnorm: 0.000317972382 xtb: 6.5.1 (b24c23e)
Fe          13.22761388247399        0.02163823596994        0.05059022038722
C            9.82804600319662        0.10684187053030       -0.02102445539905
C           10.49002130893169        1.19211988250276        0.51528709792038
C            9.82448074297980        2.33598834335282        1.06322101396423
C           10.79256652127586        3.20504625128184        1.43850368694545
C           12.04728661082287        2.58922462503288        1.11755888060860
N           11.84987867258851        1.35404984036677        0.56281416479292
C           13.27662354270593        3.20406830450555        1.31478119574642
C           13.29635468631358        4.58383037211694        1.87635227138034
C           13.18489456422002        5.68438302984099        1.02178614280799
C           13.04510637796032        5.47239946544914       -0.46205486622961
C           13.20294137573424        6.96755790114460        1.55564957666323
C           13.32837701508761        7.16987782807052        2.92616724097232
C           13.36643470181845        8.56430536605990        3.49066192219813
C           13.43907409673686        6.06686734772034        3.76670175632102
C           13.42424859796144        4.77461630080762        3.25524151881554
C           13.54289464867196        3.58544344516231        4.17072429952329
C           14.48443674525468        2.59561617442252        1.01635481188828
C           15.75613227249075        3.22249981393173        1.22062715091785
C           16.69847958996169        2.31170398895857        0.87774423023295
N           14.65063156255516        1.31991833953311        0.53056527877737
C           15.99926119816635        1.13533682017640        0.46260559170031
C           16.64931274318408       -0.04169842623245        0.06934006961112
C           15.95990776521091       -1.18780511861831       -0.34659382066388
C           16.61723713352641       -2.39588765179677       -0.73796456234415
C           15.64618892172603       -3.25878110325538       -1.12282564414102
C           14.39900928797215       -2.57220023404900       -0.96439168671029
N           14.60811978024654       -1.30354779091170       -0.47737038612884
C           13.17389314439426       -3.12465783082062       -1.30010025887268
C           13.14570400598581       -4.50253475372114       -1.86610039674225
C           13.30547652853044       -4.69488793238332       -3.24200939899882
C           13.51011633380634       -3.50973798030157       -4.14742874524811
C           13.27301557925891       -5.98401030150002       -3.75855190702971
C           13.08496446141659       -7.08402050080230       -2.92621922896333
C           13.04369794141771       -8.47058716599394       -3.50968756845818
C           12.92777873070085       -6.88042990156078       -1.56020827308558
C           12.95606930066099       -5.59893230429623       -1.02082637046540
C           12.78306631831383       -5.38642711219564        0.45946938304811
C           11.96755456296763       -2.45909671213926       -1.12729568259247
C           10.69493443525085       -3.02450868573565       -1.47030413715309
C            9.75566118927357       -2.11915833459342       -1.10813945348499
C           10.45647173529550       -1.00283290453404       -0.54753795453617
N           11.81021462150825       -1.21320578950231       -0.58329188282557
H            8.74404507082040        0.12736486090518       -0.02938685528915
H            8.75390279065127        2.44146549307720        1.14005733110168
H           10.68642178062247        4.17759801542532        1.89164115572874
H           12.11881124827045        4.93782513507428       -0.68170090950500
H           13.87421025491706        4.87152925148895       -0.83992746410689
H           13.03175321648969        6.42441050382774       -0.99180713718952
H           13.11626242365167        7.82203642394940        0.89246492843374
H           12.94964871143078        8.58713292871140        4.49788206011556
H           14.39958921075662        8.91575063898735        3.54297215251962
H           12.80514439625110        9.25437987962940        2.86029713610471
H           13.53657798058031        6.21543102604677        4.83716332643134
H           14.44530275608443        3.01703309730797        3.93734889252609
H           13.58881081549097        3.89962829327042        5.21299563513530
H           12.68728527908449        2.92006461800756        4.04180980188607
H           15.89271428023041        4.22819954529458        1.58395022689946
H           17.77176123103212        2.41077606640876        0.90074185213080
H           17.68454063882314       -2.54698023165845       -0.71662443596567
H           15.74792828788323       -4.27016065010294       -1.48188690380154
H           12.69144639893830       -2.79724691940915       -4.03149162207781
H           13.55948711787267       -3.82072751170095       -5.19050758233638
H           14.43857355685467       -2.99510023068380       -3.89238348193054
H           13.39608400402552       -6.13492554629156       -4.82607521907732
H           13.90981868879602       -8.64122242403874       -4.15101233319208
H           13.03556599070463       -9.22566026049094       -2.72377442630383
H           12.14545284609976       -8.59525069708732       -4.11807716640637
H           12.78127417609079       -7.73123913698206       -0.90287712261866
H           11.87115636943335       -4.81884421644580        0.65542981337180
H           13.62271377149629       -4.81772862588355        0.86290113941524
H           12.71959774300954       -6.33894068598077        0.98466430668679
H           10.55793284223948       -3.99179775408767       -1.92639048058898
H            8.68300464922496       -2.18360270207105       -1.19992155003021
Fe          31.80212953329495       -0.05211281018075        0.01726801881243
C           35.20164437516716       -0.06130845551809       -0.09908171139608
C           34.54002574250934       -1.21670589596369       -0.46101452754536
C           35.20584283350539       -2.42153571737168       -0.85683459306607
C           34.23788243929569       -3.30999189922191       -1.18393369583387
C           32.98296334387020       -2.64411520954869       -0.98808730093379
N           33.18015598547372       -1.36780915913862       -0.53582473519833
C           31.75366442058086       -3.22526090081972       -1.26966315130493
C           31.73412469306467       -4.61025915366951       -1.81821297287221
C           31.84426617988641       -4.81391683943291       -3.19675071312332
C           31.98243949789805       -3.63437304185370       -4.12187176615515
C           31.82643477485211       -6.10988109568193       -3.69873263656450
C           31.70248263586534       -7.20404038749262       -2.84875000875568
C           31.66472094073458       -8.60152388880738       -3.40565979751152
C           31.59298155821156       -6.98889583384829       -1.47868562821594
C           31.60761451170750       -5.70184411274831       -0.95423501534704
C           31.49002907479899       -5.47628309403969        0.52954650732872
C           30.54574055653227       -2.57942482237950       -1.06499574127664
C           29.27421316078362       -3.17336108505318       -1.35200109611522
C           28.33165563727939       -2.27796607581016       -0.97124040546141
N           30.37926706797514       -1.32175232845576       -0.53435980157044
C           29.03059126078416       -1.14114346639530       -0.45724157279378
C           28.38028461965029       -0.01929264050334        0.07294836381432
C           29.06952096362297        1.09520860763594        0.56765454972591
C           28.41204432276714        2.23713802081008        1.12305256190304
C           29.38306586824346        3.12541856749074        1.44510944482235
C           30.63037031094847        2.52066585852298        1.08389358471991
N           30.42134381291503        1.26896522584191        0.55478235010560
C           31.85540718349062        3.15172968215990        1.22476971571467
C           31.88356676981166        4.53722882656689        1.77183693656356
C           31.72210159911193        5.62939151776508        0.91346517354562
C           31.51567960420301        5.40244552556931       -0.56035145386782
C           31.75471903263132        6.91671880657618        1.43444234984311
C           31.94459495136620        7.13296962924219        2.79655093585903
C           31.98611136760311        8.53693767823390        3.33678102509789
C           32.10350641874685        6.03957661703464        3.63998551389374
C           32.07511125374135        4.74190856256281        3.14074936122099
C           32.25012583720757        3.56292463622743        4.06038493712467
C           33.06168647483233        2.55301768097559        0.88632495704396
C           34.33399287793777        3.19948471237361        1.02849807193166
C           35.27332646389818        2.29703498729378        0.65931576606239
C           34.57288503243045        1.10317628640226        0.29097451363909
N           33.21923670190723        1.27822681193075        0.41408200153325
H           36.28560470474631       -0.06918292762848       -0.12178120974226
H           36.27649946845256       -2.54991830744591       -0.87634981316295
H           34.34425704623873       -4.32605660109693       -1.52853850960403
H           32.90905711611160       -3.09635456517039       -3.91220882779165
H           31.15354167667278       -2.93910797262531       -3.97771452351666
H           31.99409479962544       -3.95538071172636       -5.16300402002754
H           31.91207196811393       -6.26822875984963       -4.76880342394132
H           32.08053564897860       -9.31483205758632       -2.69361769359774
H           30.63173935190249       -8.89125592110988       -3.61221057927212
H           32.22706277048742       -8.66393823570392       -4.33759130964966
H           31.49658224036413       -7.83666044468379       -0.80826182931991
H           30.58684015591411       -4.90587394662937        0.75490845939698
H           31.44619769210890       -6.42412351838725        1.06510960532783
H           32.34498774868455       -4.90507437718810        0.89583925239114
H           29.13789107945812       -4.15120379519021       -1.78481279167719
H           27.25840867885553       -2.36514847439251       -1.02436322834234
H           27.34466348453130        2.33151515257505        1.24226662252140
H           29.28122161701587        4.10307053843818        1.88782186700897
H           32.33450244751464        4.80947801175922       -0.97173102330290
H           31.46448745052239        6.34954082390602       -1.09659220589138
H           30.58764274315846        4.85361392348722       -0.73198809538030
H           31.63034238475200        7.76528153086501        0.76961228790453
H           31.12024990953856        9.10464898093623        2.99246218156256
H           31.99402835611613        8.53668186662914        4.42664226063109
H           32.88460248162055        9.04813781293984        2.98475596018892
H           32.25151402114711        6.19744133507430        4.70328064055689
H           33.16187729241670        3.01834877751841        3.80685976358426
H           31.41062864697934        2.87297059807206        3.95848799662461
H           32.31513213139595        3.88570064384753        5.09900554371189
H           34.47076385519382        4.21281989723681        1.37037191216308
H           36.34581633662873        2.40820957822692        0.63538997261493
C           18.04897931309243       -0.06780562799266        0.08987054564216
C           19.27547320690570       -0.07297032903142        0.10676458311117
C           20.61464598361179       -0.07202265601639        0.12067817853719
C           21.84757726158104       -0.06218245115617        0.12981119241581
C           23.18196484030167       -0.04818762274213        0.13483762968967
C           24.41487489362945       -0.03249054702270        0.13384823312548
C           25.75406255501007       -0.02265571257621        0.12311904492186
C           26.98064718311691       -0.01560443203304        0.10744014203828
