120
 energy: -216.744504859031 gnorm: 0.000887525313 xtb: 6.5.1 (b24c23e)
Ni          16.16395692941490        0.08065568900598        0.01233193777547
C           12.76098676707142        0.14647743485739        0.01458833362097
C           13.42327166833670        0.94463487082624        0.92327242444416
C           12.75744743207186        1.78750581360297        1.86851767207836
C           13.72560181221376        2.44472635085110        2.55042389023509
C           14.97688380527801        2.00319380368551        2.01523269648313
N           14.78780254312857        1.07324957362063        1.03104133951001
C           16.20914664225923        2.51274786509709        2.42636406221466
C           16.22836641829876        3.51104017041112        3.42483567208391
C           16.24456433610216        4.36779687008608        4.28370868844742
C           16.26438121397027        5.36890649814019        5.28184272393158
C           17.46449088831685        5.96415198327786        5.68767584265259
C           17.43012298556576        6.94051635944594        6.66720587349464
N           16.30489922083225        7.34673544600315        7.24999532205068
C           15.15998538979391        6.78522939741166        6.86999887455182
C           15.08542867930903        5.80193844387056        5.89955813129291
C           17.42203605347408        2.08478329330831        1.88610219340288
C           18.68612696273416        2.61962758106078        2.28140762051866
C           19.63019653174836        1.93598751308201        1.58959938706418
N           17.58097309891514        1.09272238051951        0.95245995045719
C           18.93618296131722        0.98646603623486        0.77959531089573
C           19.58756670210073        0.04796108538117       -0.02458441176600
C           18.90170038094755       -0.88548102249598       -0.80529751989538
C           19.56018599366992       -1.86009778419696       -1.61519898211560
C           18.58795769068803       -2.54337186477589       -2.26736263056139
C           17.34282656435656       -1.97962149480449       -1.85245259473161
N           17.54117249876438       -0.97281623661302       -0.94229079168789
C           16.11097461700459       -2.38889315591250       -2.36380032420003
C           16.09077856881729       -3.40941600336923       -3.33964605013768
C           16.07642311761848       -4.28683362727284       -4.17740526900870
C           16.06582433024108       -5.30667725875039       -5.15670672732634
C           17.24887321196580       -5.93811697922567       -5.55778425928988
C           17.18589335314747       -6.92945708434427       -6.52079138569195
N           16.04838165897704       -7.31742880554400       -7.09188646853229
C           14.91938702844844       -6.72199922035698       -6.71591310919396
C           14.87361055104611       -5.72129542402678       -5.76155588632946
C           14.89955720923358       -1.82963046377719       -1.95521503517704
C           13.63110161031555       -2.23026206768477       -2.48228461236642
C           12.69105018413956       -1.51659366673946       -1.81812294685018
C           13.39068351534733       -0.68534613326750       -0.88706592075518
N           14.74876749611523       -0.87340907162331       -0.98987131071747
H           11.67738401522247        0.16971647883039        0.01292758110074
H           11.68688731123810        1.85492451573772        1.97870005055914
H           13.62180059442247        3.17005649577927        3.34140271612189
H           18.40329005047586        5.66267477903267        5.23883807458271
H           18.34572737588072        7.41996367019185        7.00129341398164
H           14.26139941904937        7.14023122313117        7.36643154747576
H           14.13153707902319        5.37133480238273        5.61984789756474
H           18.81767099608204        3.41346653760698        2.99884113507921
H           20.70191847446668        2.04829707600189        1.61898027104812
H           20.62903643982996       -1.98944656259664       -1.66974113489720
H           18.68921828080491       -3.35317225597184       -2.97181841167367
H           18.19694335376347       -5.65236503019975       -5.11831368112225
H           18.08800577512030       -7.43644853454504       -6.85096677428372
H           14.01005088997148       -7.06298175996038       -7.20244322318359
H           13.93190368486145       -5.26284345531312       -5.48483413131374
H           13.49723954920541       -2.96698434198246       -3.25806667350192
H           11.61871914709326       -1.54034278270389       -1.92933896376309
Ni          29.61770521063276       -0.05200454155973       -0.06226436496987
C           33.02070887853125       -0.08685902533372       -0.11504661748980
C           32.35876182554937       -1.27634751003803       -0.33487735680718
C           33.02502335776757       -2.51979847035369       -0.57393705219429
C           32.05725166113923       -3.44220529395171       -0.79031836455003
C           30.80572965572283       -2.75668822327476       -0.68616781807695
N           30.99429631921882       -1.43500849004386       -0.39148117115730
C           29.57370944498576       -3.37141757650970       -0.91275423997326
C           29.55506602462910       -4.74080598939279       -1.25693768860837
C           29.53843574293104       -5.91753322644513       -1.55188955118705
C           29.51874464556732       -7.28835109809700       -1.89747889894347
C           28.31858129190249       -7.94281224047088       -2.19847082205202
C           28.35287692377865       -9.28530130977849       -2.53092474982483
N           29.47808689622811       -9.99408406272550       -2.57914415124452
C           30.62305905596367       -9.37912014369883       -2.29388049729523
C           30.69767334737999       -8.04086367878116       -1.95084795483349
C           28.36050045470819       -2.68881703431887       -0.82155755097187
C           27.09646153242438       -3.30299577699031       -1.07675999359132
C           26.15221772196524       -2.35864062043358       -0.84464768135838
N           28.20131904756419       -1.37836500328411       -0.44893809663958
C           26.84613169520197       -1.17586615986981       -0.44591773365895
C           26.19409011834635       -0.00448152858408       -0.05316060842760
C           26.87951300113815        1.14491984978166        0.34747398151425
C           26.22073120384362        2.33980962982229        0.76911349099598
C           27.19269373793951        3.25051803781675        1.02066484984436
C           28.43794536749476        2.60566759363932        0.74862117678742
N           28.23992090211910        1.30783237490994        0.35171654125503
C           29.66946062207361        3.25540788135749        0.83618935135460
C           29.68924316843260        4.61684290408762        1.21061438011409
C           29.70313953945284        5.78632612048605        1.53314378056667
C           29.71410074255106        7.15011643379386        1.90616825195774
C           28.53128956463270        7.81885287966041        2.24220717148419
C           28.59488732713162        9.15382935553345        2.59984265656714
N           29.73277484490968        9.84239445757862        2.64078017599583
C           30.86153122699355        9.21374917573608        2.32258301634584
C           30.90669041908105        7.88136004892426        1.95249264313457
C           30.88107675712487        2.61812196197069        0.56583854629279
C           32.14930185627534        3.27661324463564        0.63878282249951
C           33.08979848709230        2.34020281763855        0.36915675976136
C           32.39061689660829        1.11398511658624        0.13472980946731
N           31.03245485285464        1.29851201558270        0.24219934431439
H           34.10433688643325       -0.09730051198208       -0.13451226308828
H           34.09561647706852       -2.64872686773661       -0.57438061071776
H           32.16141037181239       -4.49298622810432       -1.00833735112571
H           27.37975665381698       -7.40281891777121       -2.17092844529201
H           27.43726231154860       -9.81859946279837       -2.76975132083395
H           31.52167937586037       -9.98743815562223       -2.34284867910607
H           31.65161489421243       -7.57939313745032       -1.72595882887889
H           26.96496349623772       -4.32627118689361       -1.38953576502745
H           25.08046564557278       -2.44182323693798       -0.92524854856445
H           25.15192476712361        2.45276799428435        0.85302258403893
H           27.09126685085037        4.27050400569824        1.35473827765727
H           27.58292615972947        7.29558243388416        2.22171266991672
H           27.69295902583197        9.69768862168254        2.86555472673650
H           31.77118800186899        9.80575856331713        2.36635186207541
H           31.84822351934801        7.40823999638321        1.70101689485332
H           32.28273437649510        4.32094115498806        0.87138495931446
H           34.16211804600791        2.44811493012649        0.33288640481089
C           22.21521908333785        0.04027409076411       -0.04625019511814
C           20.99401548951215        0.03735530411079       -0.04083497669249
C           23.56629398062679        0.02745400728033       -0.05104146920887
C           24.78752315729931        0.01518775670458       -0.05359011674662
