201
 energy: -333.849317125036 gnorm: 0.000839427546 xtb: 6.5.1 (b24c23e)
Ni          38.63239467771574        0.06678673162142        0.01797634097678
C           35.23931255093090        0.10342088870481        0.00494156939438
C           35.89421236837774        0.89950155002529        0.92193022841835
C           35.22444128702949        1.70964890641448        1.89214874298495
C           36.18143136598395        2.43222356546783        2.52152858511136
C           37.43412712573791        2.07094031555434        1.92608291346844
N           37.25164021303314        1.09712826047240        0.97677159892193
C           38.64584934700628        2.67781211863226        2.23496658536005
C           38.65248726065909        3.81598085307012        3.18140081490229
C           37.91298283780278        4.97072338951239        2.91064142353797
C           37.92410038026910        6.03904952139715        3.78717875133624
C           38.66775818981744        5.97955822727767        4.97208946610125
N           38.68934292718768        7.09597814616245        5.79535971022214
C           39.00809362306421        6.94279522279015        7.20851712965661
C           39.41119512787194        4.82804957305055        5.24660224764864
C           39.40048368861598        3.76553115216222        4.35904529765061
C           39.85030672662603        2.25900248968689        1.68259041228336
C           41.10476718129340        2.89830434767938        1.93606333766973
C           42.05520351460740        2.14815935125269        1.32836325820686
N           40.02898606104575        1.15436379757183        0.87947968728193
C           41.38224635058443        1.06299601304152        0.69149541720022
C           42.04875386894721        0.01771966337108        0.04378744695509
C           41.36279580998200       -1.00775943719711       -0.61517960990645
C           42.01326421977098       -2.10991015614891       -1.24612825991430
C           41.05164037850849       -2.82385857870582       -1.87974159557028
C           39.81329483774320       -2.14726400198196       -1.64466739020566
N           40.01101008990253       -1.05620487933555       -0.82798487242293
C           38.60665730060513       -2.52443019795474       -2.22202568590694
C           38.59711311342895       -3.64741694158258       -3.18627223708456
C           39.36191182600641       -3.59549325895627       -4.35305432487892
C           39.35449678607788       -4.64061532141552       -5.26104110464642
C           38.58711111672384       -5.78197292499796       -5.01133461762607
N           38.50692877940111       -6.83832555143404       -5.90703960050975
C           39.60211907126807       -7.07788684217188       -6.83719490798885
C           37.81509129196259       -5.83719223933784       -3.84437637370922
C           37.81876531496302       -4.78411074682105       -2.94959111881418
C           37.40685944859528       -1.89029631562228       -1.92131031589644
C           36.15161770182124       -2.21628733641614       -2.53153799020235
C           35.20480091450882       -1.48485133701106       -1.89707469574871
C           35.88401633159162       -0.70084127544962       -0.91213903277029
N           37.23759688087174       -0.92510784355395       -0.96036341240017
H           34.15555670960229        0.11371197729069        0.00210217757760
H           34.15842422306511        1.71178904006368        2.05582284634109
H           36.06261317142540        3.14461315618559        3.32180222183049
H           37.34083801901097        5.03564799329112        1.99156969321673
H           37.35520183047603        6.93423018662881        3.55882683308507
H           37.89634886739304        7.70776176093699        5.64391699758931
H           40.05888530243099        6.67586042321873        7.32813894998755
H           38.38485483917530        6.17519780969214        7.68148681834909
H           38.83400442157932        7.90073679025142        7.69872842618522
H           40.00189900554829        4.75482180491526        6.15150597178132
H           39.96787066334083        2.87095231444031        4.59197901749778
H           41.23296275879612        3.80668552312078        2.50152388801917
H           43.12026836062204        2.30637977938362        1.30737128643060
H           43.07198543043152       -2.30313803964253       -1.20338343138860
H           41.16204146776755       -3.73093466565542       -2.45115983563112
H           39.95454847419621       -2.71152019236978       -4.56243086861370
H           39.94586176051294       -4.56023160140648       -6.16488831935925
H           38.17644816621832       -7.69225666200651       -5.47388142672787
H           39.63976814988793       -6.28323513016303       -7.58328434597860
H           39.41195871881776       -8.02367637866549       -7.34465545181953
H           40.56651346968838       -7.13204420714641       -6.31921188725740
H           37.21282750462298       -6.71722999466172       -3.64432839271431
H           37.23007310987504       -4.84896562347996       -2.04101619047823
H           36.02366993385369       -2.91310317323578       -3.34392814774332
H           34.14011948573701       -1.46287244303005       -2.06794137333961
Ni          60.36019623929052       -0.01271400070337       -0.06367960700060
C           63.75355152076013       -0.03200135551146       -0.06267292369526
C           63.09766342543943       -1.09761167774981       -0.64395964182216
C           63.76557711736671       -2.22818718665744       -1.21142186661098
C           62.80963244820597       -2.99382243287625       -1.78939044406621
C           61.55963844459723       -2.32297594198593       -1.58470821329777
N           61.74185943091418       -1.18384375171272       -0.84174228514990
C           60.35162023687851       -2.74605843188187       -2.12655659063679
C           60.34746571093383       -3.92095654958893       -3.02709637827348
C           61.10342374457122       -3.92024359466238       -4.20272734174953
C           61.09859281159853       -5.01437843933859       -5.04694182334445
C           60.34557459973288       -6.15224766969572       -4.73264879997735
N           60.33382744800159       -7.20687206619143       -5.63438579429746
C           60.00862038534414       -8.54829017607286       -5.16820312389102
C           59.58403711811430       -6.15644971239388       -3.56049343787253
C           59.58795373105015       -5.05258568516671       -2.72484074386728
C           59.14904579987324       -2.10427465323055       -1.85604940656304
C           57.89978784203221       -2.47806692630150       -2.44427947446817
C           56.94738384222799       -1.71496187618427       -1.85596772651985
N           58.96616287510570       -1.08041126003836       -0.95304132060105
C           57.61387489325536       -0.86697656362143       -0.92181850341769
C           56.94259994566251       -0.00763544953429       -0.04559948584241
C           57.62563718354654        0.85374230707581        0.81958417787185
C           56.97146811837074        1.71149219965802        1.75339595230698
C           57.93185417666069        2.48031238435598        2.32140921398743
C           59.17358725924525        2.09789552870245        1.72307256706740
N           58.97852718639449        1.06540764584537        0.83293741640810
C           60.38150075980520        2.73672233418276        1.97737333375138
C           60.38896054950796        3.92216495316366        2.86368718447567
C           59.63328690763915        5.05373620130898        2.55162812596140
C           59.63968372916626        6.16793956401396        3.37346894805812
C           60.39663762242638        6.16906035016294        4.54858909990603
N           60.47646459557944        7.27352289839266        5.38420583303750
C           59.38932458475554        8.24276555737764        5.40272188931163
C           61.15870271766642        5.03750271427497        4.86449060166510
C           61.15634931151796        3.93457320574405        4.03199224906827
C           61.58425247205009        2.29843626323132        1.43595253166421
C           62.84140747054709        2.95811021709256        1.63296032960861
C           63.78948039548110        2.17322852317755        1.06803749700212
C           63.10942796228384        1.04408227846214        0.51242579591332
N           61.75431267347836        1.14844042330810        0.70648827710570
H           64.83734097941137       -0.03896943927997       -0.06116375515319
H           64.82973887977042       -2.39698410714239       -1.16376224584814
H           62.92739904754402       -3.93255486083138       -2.30606177082546
H           61.68431435366789       -3.04246209194053       -4.46415390662665
H           61.68066645697057       -4.99599309655753       -5.96238905194829
H           61.13647173607178       -7.19940473241711       -6.25262604122987
H           58.95456946329506       -8.60350317570557       -4.89327513377623
H           60.62174766731875       -8.83521175240259       -4.30614895998752
H           60.19178921572815       -9.24315584549328       -5.98784945314030
H           58.98497410331556       -7.01871973982066       -3.29444306174055
H           59.00648635454340       -5.07500817719767       -1.80950823596522
H           57.77644184268643       -3.22412183445207       -3.21214269032066
H           55.88503359452460       -1.71697763383214       -2.03239491492224
H           55.91119627712094        1.71705813901022        1.94232259789935
H           57.81818376690583        3.23533483967175        3.08203659965256
H           59.04891052073574        5.06856538186553        1.63799091178723
H           59.05581674306514        7.03583079059249        3.09232972611783
H           60.79580503219184        7.03581264794085        6.31565895034020
H           59.36536444295832        8.79612638075406        4.46315294949324
H           59.57760918673522        8.94418316364004        6.21557421673345
H           58.41904164482298        7.75773916065103        5.56010558439053
H           61.75238360555033        5.03092058855952        5.77263119365006
H           61.73748014574995        3.05856867325282        4.29877901336405
H           62.96959871514382        3.90282181463125        2.13594579165957
H           64.85562498401863        2.32902273855670        1.02002714212916
C           43.45842826338464        0.00341618592441        0.04838651912692
C           44.67599364818075       -0.00340543086277        0.04654259604158
C           54.31499350964427       -0.00372089224908       -0.03419460004405
C           55.53269383939551       -0.00619631470404       -0.03756357405521
Ni          49.49511027133133        0.00881182060048       -0.00244740645246
C           46.08477746855699       -0.00610146125679        0.04122594209451
C           46.76344412863261       -1.11903973270595       -0.46897734014275
C           46.11369407898122       -2.28885728178704       -0.96470667826182
C           47.06431545601444       -3.03928602207530       -1.57387153321986
C           48.29961983514723       -2.33180607304868       -1.43656323115112
N           48.10900391703822       -1.17598807106068       -0.71336169104313
C           49.47481986073100       -2.67250625932907       -2.09536221032806
C           49.46116606941260       -3.82813202750998       -3.02513062360243
C           49.27803466742269       -5.12805274265920       -2.54949153231676
C           49.26537549896332       -6.20186975542483       -3.42049932716919
C           49.42817166243041       -6.00352354994254       -4.79665690262417
N           49.34639655707916       -7.10491815529545       -5.63793824097505
C           49.97932277656246       -7.05273491407110       -6.94950951549787
C           49.59903352347017       -4.70247017077795       -5.27733838940638
C           49.62319787896597       -3.63379892827436       -4.39676103603491
C           50.65990173330098       -1.96821613004797       -1.92267967574965
C           51.89010301442230       -2.29155589745910       -2.57665721718728
C           52.85374188956438       -1.53809253078890       -1.99236445823020
N           50.86726170291929       -0.99247641020310       -0.97344999441092
C           52.21643542901293       -0.76233352778606       -0.97811408720581
C           52.90600637220167        0.00390155273417       -0.03061904258757
C           52.23133609541987        0.78038027626107        0.91949517313552
C           52.87886439547056        1.53025975738909        1.94581459509836
C           51.92680599301335        2.29629962270606        2.53476910421957
C           50.69748183070155        2.01653003435359        1.86046847035430
N           50.88614857401671        1.03449248826242        0.91484592597266
C           49.51310649714294        2.71906860232190        2.05765710828745
C           49.52267835287419        3.89963746691113        2.94646769590390
C           48.64633642436510        3.98782535567335        4.03026819807483
C           48.65249703677046        5.08864177796174        4.86940795274083
C           49.54328383152591        6.14129570752475        4.63996245630037
N           49.55478136916126        7.29221752009601        5.41322973301817
C           49.05148111357324        7.24966890234068        6.77957264779127
C           50.41537138841762        6.06414874757527        3.54674470816169
C           50.40819596531683        4.95783554414137        2.71927553106490
C           48.32043774422362        2.34666917084084        1.44630408037987
C           47.09564298985963        3.07762387403834        1.54694734713427
C           46.13270471362094        2.30580732791382        0.98404314666977
C           46.76953985617576        1.11190070947309        0.53255127815340
N           48.11799157646263        1.17052951395665        0.76077052893670
H           45.06076190425301       -2.49358176194171       -0.86623635838187
H           46.94459672739538       -3.97965404058160       -2.08655040467379
H           49.16405206238878       -5.29728722040785       -1.48441063744658
H           49.12916712566471       -7.20826806921356       -3.03865089877129
H           49.53202412411629       -7.97687078763549       -5.15650866880839
H           49.43955664119762       -6.36091370575708       -7.59755460027924
H           51.02704930433312       -6.73828573031776       -6.87971220394018
H           49.93076324499545       -8.04979968281410       -7.38698301756344
H           49.70946687408721       -4.51564288500414       -6.33845038928294
H           49.74982394690296       -2.62772595584003       -4.78159438774167
H           51.99738354634695       -3.01724287247329       -3.36631806546098
H           53.90730166360398       -1.51057442257589       -2.21434596097821
H           53.92832499551051        1.46955722721964        2.18082988712703
H           52.03933474814662        2.98459669481226        3.35660105274356
H           47.96429673188761        3.16886918937591        4.23163812590438
H           47.96106907386790        5.12233353388098        5.70236663551442
H           50.42408387203614        7.80640999235580        5.33829086014638
H           49.52192098472992        6.44611215709637        7.35767712766890
H           49.27185146590744        8.20816382724353        7.24937034048321
H           47.97060146022989        7.10347309775377        6.77543915025982
H           51.09903896683669        6.88365350807304        3.35130533431077
H           51.08124543290135        4.91844555695091        1.86978896470191
H           46.99322625736379        4.05689416882710        1.98521225290329
H           45.08283528233090        2.51994018513640        0.87374860284034
