248
 energy: -454.816479620978 gnorm: 0.000474981833 xtb: 6.5.1 (b24c23e)
Cu          42.81533349913922       -0.01791699499127       -0.04177744011071
C           39.41011299809678       -0.07010248711211       -0.09756590945608
C           40.05152872511516       -1.29754482212364       -0.02535705913047
C           39.38271759206464       -2.56302383492155        0.07242900702662
C           40.34647816636424       -3.51446926765217        0.14532959633481
C           41.61394314120906       -2.83909485608478        0.08030073601600
N           41.40328266653199       -1.49342272485606       -0.01423691030317
C           42.86206236686184       -3.46511034530258        0.13036183218589
C           42.88482078162200       -4.94663998259795        0.22030408609070
C           42.34125827643074       -5.73011309646980       -0.79781376501606
C           42.36446873955549       -7.11403527906407       -0.71603056574098
C           42.92988942192174       -7.73126201457101        0.39716492571610
O           42.97066810367737       -9.08338959580721        0.51946790009262
C           43.47335305156587       -6.96025607906415        1.42301948016973
C           43.45173280229049       -5.58006209131659        1.32895337345547
C           44.09093793230183       -2.80260487730205        0.10507838051126
C           45.37204515417342       -3.45028042475318        0.09594397414386
C           46.31279413922799       -2.47284927000364        0.05743668688778
N           44.27224469068558       -1.44535372111845        0.05799911406017
C           45.61467715484628       -1.22280867072970        0.03551175939433
C           46.24413158308037        0.03365083889093       -0.00847263559456
C           45.57916272163510        1.27152981563320       -0.05498663352904
C           46.24074832606571        2.53951042243683       -0.12641583955463
C           45.27180585763639        3.48856103292869       -0.17636872470643
C           44.00987151286751        2.80590502717835       -0.12823757089144
N           44.23075881510375        1.45535792040957       -0.06103786923546
C           42.76209094410459        3.43038306112151       -0.17707725985603
C           42.73894799058792        4.91421150017168       -0.22389521785197
C           43.25734079696166        5.66495975553467        0.83387443847651
C           43.23225951934160        7.04799902434279        0.80074787170416
C           42.69060855756498        7.70297094179179       -0.30367335046990
O           42.68415497793116        9.06124748383259       -0.30527582750285
C           42.17426754772062        6.96772209428366       -1.36798936171712
C           42.19707369804473        5.58215875634844       -1.32210859739674
C           41.53326759532074        2.76553067190751       -0.18255597331873
C           40.24660601721187        3.40688784784221       -0.19254785478275
C           39.31089205321626        2.42530051011489       -0.17773896948734
C           40.01616384267140        1.17626419116761       -0.14744032592870
N           41.36173094419748        1.41139941501234       -0.14902338589089
H           38.32501959241495       -0.08557704080635       -0.09940351267898
H           38.31193471521016       -2.69213455869983        0.09152087694422
H           40.21692148244146       -4.57994529535819        0.24744026367147
H           41.91236300742254       -5.25141691384875       -1.67116183974381
H           41.94666104966691       -7.71825279602015       -1.51419375117810
H           42.56712791760022       -9.51803079890522       -0.24378713150233
H           43.90637056185579       -7.45340006024912        2.28449165587402
H           43.86400919566215       -4.98003069725787        2.13249224372053
H           45.52815906773642       -4.51685819748793        0.10238892332925
H           47.38564167256968       -2.57944225305886        0.03931055492962
H           47.31030002323813        2.67559531658227       -0.14310024082215
H           45.39662723060410        4.55649124880850       -0.25402937267585
H           43.66811942425887        5.15522705404875        1.69824251476346
H           43.62678857939635        7.63234996963331        1.62278718353486
H           42.28559926493013        9.41031699765425       -1.11369438798025
H           41.75794095402216        7.48186090831879       -2.22768812271373
H           41.80537766327388        5.01102736174557       -2.15653727475893
H           40.08630413794339        4.47307510989636       -0.19638384685135
H           38.23673103453364        2.52437353526288       -0.17784973883994
Cu          90.93836413423334        0.00027910208987       -0.01587300953041
C           94.34244794749191        0.04933502716017       -0.12910254565630
C           93.69743735921421        1.27340424981066       -0.22213483640505
C           94.36283235400867        2.54068940110444       -0.31921755743592
C           93.39679286975797        3.49159379553561       -0.36295691715452
C           92.13115299051108        2.81235519401923       -0.30406499233914
N           92.34526359956233        1.46699526274945       -0.21214322418440
C           90.88233296313842        3.43868207077712       -0.31122121635122
C           90.85691827966774        4.91787101778432       -0.43502442760739
C           91.36611632024155        5.54274094938321       -1.57356361714605
C           91.33958448757907        6.92352870171511       -1.69584432350746
C           90.80569676807254        7.69802902335223       -0.66868777622925
O           90.76260371981405        9.05336266684771       -0.74579868300570
C           90.29755530239602        7.08662524700207        0.47594275711144
C           90.32187116606757        5.70752458984181        0.58550616101334
C           89.65586272843098        2.77868199688529       -0.21380466659183
C           88.37261792360616        3.41888695859610       -0.27677521348182
C           87.43480552907509        2.44380041992197       -0.16946704084532
N           89.47861898643821        1.42655535618923       -0.07978045712344
C           88.13668341030494        1.20169322843072       -0.04753886904849
C           87.51054075334609       -0.05218390817967        0.06500915241488
C           88.17890838827397       -1.28513691616379        0.16195383053907
C           87.52077078753241       -2.55322221948144        0.25803315613737
C           88.49230122726321       -3.49828225102614        0.32921901350491
C           89.75230252550139       -2.81215352774461        0.28254855644399
N           89.52789309582522       -1.46493428477230        0.17283202595230
C           91.00155477322114       -3.43467410762068        0.31282918308303
C           91.02897620246590       -4.91121739932276        0.46633799873930
C           90.51981962139142       -5.51392167567221        1.61900016192872
C           90.54956498758183       -6.88877180895539        1.77220577708475
C           91.08613432137781       -7.68512654721623        0.76225216735007
O           91.09719000242642       -9.03118448102793        0.94341532042060
C           91.59299222762803       -7.09860087943879       -0.39492810934676
C           91.56597854838871       -5.71955492936492       -0.53568494424358
C           92.22804865809429       -2.77378370130138        0.20966545181754
C           93.51660308087290       -3.40776895980741        0.27628022360263
C           94.44914207915969       -2.43195460435874        0.14416307987039
C           93.74008607984678       -1.19226964692866        0.00739405816332
N           92.39532082712694       -1.42755543390755        0.05426690889896
H           95.42730228186419        0.06600391820770       -0.15037433425313
H           95.43325136561793        2.67243410962986       -0.34082032692480
H           93.52370838878745        4.56092597139191       -0.41659809577251
H           91.77043647824837        4.94029662357023       -2.37945309889901
H           91.73019554691237        7.40343161009260       -2.58682041568955
H           91.13911957662346        9.37061097393572       -1.57761878456978
H           89.88919822145172        7.70146799624347        1.26844688173937
H           89.93687184598069        5.23258792640264        1.48099374984995
H           88.21286863688164        4.47748246880534       -0.40264730628153
H           86.36145416800154        2.54629781556682       -0.17795592267639
H           86.45155210649544       -2.69278417027998        0.26407063934838
H           88.37057997587313       -4.56747081252508        0.39324570819920
H           90.11270131266224       -4.89350358975332        2.40957746375377
H           90.16251989228287       -7.35816781613666        2.66814501998655
H           91.49087310958812       -9.48500581458843        0.18627473136098
H           92.00530412017464       -7.72274629232959       -1.18051834679544
H           91.95040493273584       -5.26483072672853       -1.44194296389956
H           93.68029550610878       -4.46382821304856        0.41914963799327
H           95.52356553765246       -2.52805720813763        0.14622464173909
C           51.44701262438859        0.06427624895985       -0.03888153755148
C           50.21889250764768        0.06577602385108       -0.03098724238395
C           48.87392177178849        0.06069313914238       -0.02190623231362
C           47.65036152219376        0.05125207682367       -0.01426016843379
C           52.79184290034306        0.05998800728147       -0.04818215437449
C           54.01565681245530        0.05514670832604       -0.05428446343929
C           67.49212177566190       -0.02265651140128       -0.03086482375338
C           66.26352451889990       -0.01808250579038       -0.03674656347239
C           64.91957529873041       -0.01109616583650       -0.04318105929600
C           63.69544161031725       -0.00279693504685       -0.04957355111921
C           68.83610599914459       -0.02659071513953       -0.02706342100936
C           70.06027898466590       -0.03010352118339       -0.02504790650508
C           83.53583888584029       -0.08768211900447        0.05538731293346
C           82.30776161629201       -0.08648610048337        0.04037310506215
C           80.96305799971813       -0.08016025410185        0.02356770172710
C           79.73934996979281       -0.07042616382605        0.00684167043356
C           84.88079705869765       -0.08165659397172        0.06453960468823
C           86.10440935783437       -0.07303304466917        0.06901481908283
Cu          58.85579860160558        0.03046511912555       -0.06001394336820
C           55.42118577632013        0.04912355625196       -0.05797939224499
C           56.07543325173011        1.09844103433388        0.61223741708717
C           55.40430243336582        2.13219145773544        1.34050793937054
C           56.36519723081366        2.95184443062242        1.83846214187555
C           57.62990504809122        2.42795576414647        1.40807924316243
N           57.42064151468450        1.29434642606853        0.66842551019634
C           58.87304982351447        2.98579727921653        1.71530123256571
C           58.88142493246428        4.25598984702482        2.48278835899226
C           59.48648109165214        4.32159799651863        3.74035900094144
C           59.49430275310388        5.50163013171799        4.46258336328157
C           58.89957402550591        6.64305430243829        3.92793500955382
O           58.92933031105736        7.78578343337248        4.66111735884672
C           58.29588222391801        6.59395145445924        2.67360406181656
C           58.28560290805866        5.40466967681548        1.96126634579279
C           60.10942692680669        2.44217908662455        1.35983805833054
C           61.38083096501266        3.05672832555592        1.61473354532365
C           62.33205055394392        2.22336746599379        1.12096943545568
N           60.30518562120618        1.25506713664110        0.70493412034688
C           61.64823005285557        1.10065479768857        0.55420342503427
C           62.29089233223440        0.00688818806932       -0.05407693647740
C           61.63587820372589       -1.07714226573996       -0.66647663328959
C           62.30624413804198       -2.20847894458107       -1.23211607819692
C           61.34546198827359       -3.02744412011992       -1.73146051195150
C           60.08167354632168       -2.39550101785085       -1.48083019469136
N           60.29142697713068       -1.21242972552728       -0.82313240455902
C           58.83902807344577       -2.92150429967328       -1.84157107838818
C           58.83377061651077       -4.18880593004596       -2.61370870437471
C           58.21916434192021       -5.33143665089660       -2.10069558045647
C           58.21864243719618       -6.51813351680500       -2.81744040664176
C           58.83070379061506       -6.57088794433157       -4.06754990288777
O           58.85087328234123       -7.71146451089371       -4.80449027211528
C           59.44413477923870       -5.43550486656484       -4.59384917235058
C           59.44660034181653       -4.25805738883706       -3.86740500281908
C           57.60250683067323       -2.34900101178444       -1.53420597690833
C           56.33165412933452       -2.85676947825237       -1.96586278738418
C           55.38032102153559       -2.02873146393455       -1.46335151668340
C           56.06351854939146       -1.00525059788716       -0.73186447950486
N           57.40645861719236       -1.21550932059454       -0.79059511442263
H           54.33523862017457        2.20740833689267        1.45943305959770
H           56.23286493811447        3.82525595468541        2.45629492643702
H           59.93899885430811        3.43069626925174        4.16131795671326
H           59.95586619617528        5.55315565863878        5.44094213511971
H           58.48805381810869        8.51166586280045        4.19997188201845
H           57.83806479292463        7.48592445972633        2.25948390322560
H           57.82582569837734        5.37089157205924        0.97978000196614
H           61.52394133312692        4.01110496177215        2.09505213831783
H           63.40239473925812        2.35371985089113        1.12725932424353
H           63.37468571476394       -2.35384717930920       -1.23409108447006
H           61.47729600955675       -3.98317206275523       -2.21232726525000
H           57.75336229200317       -5.29546493247424       -1.12213520394266
H           57.74617156185300       -7.40545141684334       -2.40983891585547
H           58.39808671482915       -8.43341044076373       -4.34819394482144
H           59.91225878274860       -5.48968315060709       -5.56894519385469
H           59.91385010334341       -3.37177181684858       -4.28199284867830
H           56.18896720301287       -3.72594583536663       -2.58735818990591
H           54.31034676459213       -2.09157042127952       -1.58138324128460
Cu          74.89966185210328       -0.03966907239182       -0.02769429506918
C           71.46482725850748       -0.03241077641171       -0.02577604948307
C           72.11628071655319        1.01233679587287        0.65490564908657
C           71.44268317768727        2.03822032917156        1.39167004951768
C           72.40085518654276        2.86555975947085        1.88241988718393
C           73.66615214671157        2.35300404628573        1.44056696893622
N           73.46023455214122        1.21740397276766        0.70282351610114
C           74.90674282958392        2.92471653004935        1.73188173978542
C           74.90907627431750        4.20362383340255        2.48445908286091
C           75.52723433930862        4.29305090565917        3.73415933892251
C           75.52738059613422        5.48221543997688        4.44132369054442
C           74.91165580538041        6.60892842346709        3.89921816709717
O           74.93375504205032        7.76088397167666        4.61792536577836
C           74.29513656751404        6.53619243397435        2.65226094625921
C           74.29257519566904        5.33791555442568        1.95524967866522
C           76.14462090817248        2.38754684136036        1.37145838214423
C           77.41340034686027        3.01319061405749        1.61171997285793
C           78.36756000684530        2.17736328610351        1.12789011810493
N           76.34433426788041        1.19302121523983        0.73150290223336
C           77.68807923228874        1.04285902551713        0.57977245983331
C           78.33402677936851       -0.05984735527116       -0.00782604650235
C           77.68265026061130       -1.15034264183070       -0.61154337769607
C           78.35520308150799       -2.28598731804546       -1.16587753423789
C           77.39729515507132       -3.10222675148662       -1.67516979588627
C           76.13307741869022       -2.46521389730674       -1.44042535860940
N           76.33911280330317       -1.28219908759469       -0.78192589472549
C           74.89297579439267       -2.98576908999347       -1.81788498010504
C           74.89144849711057       -4.24639579266482       -2.60057980461937
C           74.26343793416775       -5.39021398644343       -2.10670603702638
C           74.26109770376613       -6.56852484942552       -2.83706873700444
C           74.88478513870355       -6.61148259872788       -4.08183120325391
O           74.90201270994272       -7.74302337538852       -4.83247149030755
C           75.51332956716934       -5.47529070047280       -4.58820342098801
C           75.51760010373320       -4.30637053283327       -3.84816291605296
C           73.65506843757896       -2.41252874274207       -1.51835718483617
C           72.38677359004281       -2.91551830901095       -1.96272435566757
C           71.43256199420665       -2.09269557995478       -1.45705368948392
C           72.11163610753904       -1.07661124077356       -0.71178607527826
N           73.45476569993971       -1.28537312849223       -0.76585414570251
H           70.37403481090016        2.10428537932425        1.51949362797013
H           72.26647211636711        3.73677074584158        2.50291778376863
H           75.99576575102205        3.41351151558168        4.16142872230583
H           75.99886410833996        5.55222680077933        5.41378506926851
H           74.47794360905677        8.47510519055552        4.15256903342916
H           73.82117904053325        7.41680301820362        2.23203438181920
H           73.82241370015483        5.28550121057930        0.97950906331481
H           77.55265445280102        3.97547551414224        2.07715779692753
H           79.43719524750678        2.31348543720054        1.12847903547742
H           79.42307700628631       -2.43512877881897       -1.15530954760116
H           77.53068509736174       -4.05915955877456       -2.15324066927968
H           73.78796459194643       -5.36174929613202       -1.13256759893480
H           73.77744288059247       -7.45665990230892       -2.44465876265532
H           74.43547657882395       -8.46544524480833       -4.39116612497384
H           75.99081058098294       -5.52189502924099       -5.55913934661717
H           75.99595047274119       -3.41905912352035       -4.24762745987965
H           72.24729368440975       -3.77820499551188       -2.59387018947644
H           70.36324048616609       -2.15473064730120       -1.58112789325646
