124
 energy: -243.422943731368 gnorm: 0.000899242799 xtb: 6.5.1 (b24c23e)
Fe          15.95417030733513       -0.06098636932949        0.01294767559704
C           12.56824558262795       -0.06075464041129       -0.14590766607888
C           13.21628295360848       -1.27837136733575       -0.17330312534619
C           12.53862860029694       -2.53882491750088       -0.22029459200709
C           13.49485141029260       -3.48848845522742       -0.34695012627320
C           14.75531633178714       -2.80416855552732       -0.38910726765664
N           14.57320503526081       -1.45614892888820       -0.24352343301624
C           15.97751845571799       -3.43323457286657       -0.60247785569876
C           15.98348306610871       -4.89061530579870       -0.86311899818116
C           16.65126747967802       -5.76174383273047        0.00256485504159
C           16.65517011798699       -7.12390354370347       -0.23713311783275
C           15.99004082364984       -7.61819944983769       -1.35538791021517
N           15.99276448375425       -9.04796074823055       -1.61304193216783
O           15.39762455472928       -9.44029298558273       -2.58354549672213
O           16.58864996993189       -9.75243095873380       -0.83951143232276
C           15.32162798345693       -6.76743380681747       -2.23101351369523
C           15.31896726210765       -5.40758597587775       -1.97929901265323
C           17.18943888954945       -2.75601524314900       -0.58647519735026
C           18.45575098890020       -3.37221487205266       -0.85109319743497
C           19.40090739314585       -2.42237995933478       -0.65214552330538
N           17.36032945790079       -1.42749762582933       -0.27951980622631
C           18.70932572280180       -1.22836153900377       -0.27911144218564
C           19.36387488785002       -0.04764935385761        0.09175571200844
C           18.68095555573656        1.12786366874094        0.42713516250649
C           19.34039395199566        2.32177929378540        0.85440670473290
C           18.38007198264136        3.26741881343464        0.99248149973087
C           17.13769424814533        2.64846477103040        0.63703440751629
N           17.33561943070470        1.32467627303207        0.32657071923938
C           15.92426126917088        3.31980937296395        0.57372343009539
C           15.90477429612645        4.77570597422665        0.84270357891538
C           15.16833557477456        5.28262396345716        1.91752166794148
C           15.14555893232234        6.64129151932445        2.17465763932934
C           15.86015245609175        7.50079075773336        1.34525053650528
N           15.83492560600599        8.92960630533308        1.60742985261489
O           15.18781315091299        9.31206546963646        2.54804820803415
O           16.46226802733226        9.64296332821223        0.86767565038683
C           16.59749684130037        7.01638403192341        0.26874043409634
C           16.61937755854716        5.65521846993797        0.02426736741612
C           14.72307403849839        2.68681020305589        0.27153449002619
C           13.46594957598334        3.36715063808299        0.14621131348115
C           12.52550480092092        2.41565785210201       -0.05896101381255
C           13.20977236380672        1.15782997977966       -0.06767694512952
N           14.55885205182558        1.34044921021487        0.09198941939072
H           11.48494245527298       -0.06170467849984       -0.18549479666122
H           11.46892382495072       -2.66076632119062       -0.16155212537843
H           13.37090165445219       -4.55778114625631       -0.40190737739957
H           17.15515449945729       -5.36497908272332        0.87610705906114
H           17.16422374937784       -7.80808729758233        0.43100535350794
H           14.81484285085836       -7.17721671465910       -3.09637549188702
H           14.81185383908331       -4.73292442800584       -2.65908888344838
H           18.59397950037904       -4.39737880723244       -1.15337553866456
H           20.47147754941122       -2.50766799718602       -0.74506277380305
H           20.40135878858699        2.40950770182581        1.02397451491565
H           18.49245545701025        4.29062680145955        1.31176508809661
H           14.62429913005678        4.60119018966965        2.56104811626161
H           14.58286423189536        7.04365713097675        3.00840873472491
H           17.14186707714757        7.70726460642104       -0.36372218799520
H           17.18029982893691        5.26571246027668       -0.81721357775780
H           13.33402203489119        4.43530914087009        0.20431328826033
H           11.46205619878047        2.53424265439387       -0.19152727610042
Fe          29.36999913661615        0.05236537914133        0.03510304465083
C           32.75591393114213        0.11127844263616       -0.11101717050322
C           32.10784295913727        1.25044610764738        0.31981193602491
C           32.78549104413585        2.43653361439912        0.74895899414282
C           31.82931253164631        3.36461137791554        0.98698315371430
C           30.56885931325758        2.74617955013070        0.69087322293132
N           30.75095751436180        1.44181509514899        0.32073788993784
C           29.34668839620944        3.40947522880833        0.72859220216827
C           29.34074006249238        4.85824310105759        1.03341589939234
C           28.67193788781595        5.34141985018243        2.16190484647012
C           28.66795647929189        6.69409833382107        2.45035210757761
C           29.33429930477919        7.57146645983344        1.59977428169693
N           29.33227218131820        8.99352517724648        1.89735070808576
O           29.92746988909025        9.72092668316635        1.14500434061699
O           28.73268682640041        9.35691895585065        2.87634787106048
C           30.00367652862568        7.11090687677167        0.46968457018736
C           30.00629649310778        5.75588200542762        0.19317834183547
C           28.13478026479727        2.77569457839647        0.48920215945072
C           26.86848113890385        3.44618406858819        0.47433002892738
C           25.92339203525317        2.49106383441156        0.30214268164218
N           27.96394625816828        1.42900752621486        0.27562705595059
C           26.61499203156630        1.24426266983459        0.20061159044971
C           25.96029097096834        0.01071846066170        0.10185329126207
C           26.64308702118432       -1.20496272109492       -0.02706706050378
C           25.98375727120951       -2.47205677081519       -0.07782130948338
C           26.94415154542587       -3.40054204637681       -0.30386174703867
C           28.18645302649378       -2.69342054507365       -0.40176069448971
N           27.98847450294813       -1.34973633503469       -0.19378436065315
C           29.39980021452238       -3.29204613465204       -0.71253298935028
C           29.41910489981284       -4.74253792199040       -1.00930724149262
C           30.15550803420792       -5.61579381510820       -0.20329964260660
C           30.17812443182099       -6.97167491745448       -0.47481010563823
C           29.46339182416720       -7.45706265865340       -1.56606927441539
N           29.48832895748153       -8.87985980569452       -1.85910904825461
O           30.13606416347762       -9.58731811004420       -1.13132382688358
O           28.86153457746275       -9.26328062585000       -2.81297599530616
C           28.72603852255497       -6.60402165809257       -2.38207049803851
C           28.70428130195696       -5.25060462120200       -2.09786465775070
C           30.60095604881694       -2.59191573761835       -0.75557597818777
C           31.85807064770277       -3.17563927585845       -1.12687113687378
C           32.79860666403859       -2.21682516880429       -0.95971680890412
C           32.11438868466696       -1.04756073088359       -0.49592958533962
N           30.76525252669673       -1.27656688365101       -0.41678623763935
H           33.83923996098490        0.12682231798152       -0.14678035329886
H           33.85516510970104        2.52741299318103        0.84958017335821
H           31.95332477930391        4.37655932256523        1.33677882961656
H           28.16730748897747        4.64621075936087        2.82254271552324
H           28.15812047781404        7.07798226284321        3.32576583155798
H           30.51138312531647        7.81511871233613       -0.17833713381900
H           30.51421062395180        5.38522262363068       -0.68947661195837
H           26.73018366019864        4.50989728200913        0.57842051324474
H           24.85283953016070        2.60491189177513        0.24740636959425
H           24.92281882346039       -2.61706178978292        0.04655215273007
H           26.83187225427227       -4.46888355161867       -0.39085145039766
H           30.69962561862674       -5.22569551808803        0.64888190458634
H           30.74077414646157       -7.65756191221984        0.14700506744255
H           28.18152992305282       -7.00704467389585       -3.22749799093932
H           28.14327979617859       -4.57373218699025       -2.73155521122741
H           31.98989502070219       -4.18753632079595       -1.47390382691009
H           33.86208487222395       -2.27712026265624       -1.12687759638775
C           21.98871029406240       -0.03599790089168        0.13567129038526
C           20.76507338387683       -0.03991537081851        0.12285886962929
C           23.33546415644981       -0.02192099601796        0.13692687853219
C           24.55906476662409       -0.00797467619915        0.12788488487214
