480
 energy: -835.319379388827 gnorm: 0.000851443257 xtb: 6.5.1 (b24c23e)
C          118.81672748591548        0.07399245524304       -0.04210142816632
C          119.42648882069626        1.31912335764244       -0.12205872026021
C          118.77599812527949        2.58435809419308       -0.16724754801240
C          119.73872922517963        3.55029408733632       -0.24798164915746
C          121.00874958792893        2.90531018073821       -0.26767587760806
N          120.76956982504407        1.56350078205799       -0.17965494680958
C          122.27275944724728        3.50096082737625       -0.34063033510972
C          122.30913849637207        4.97960771114693       -0.43991810055032
C          122.94072961255516        5.73655124908842        0.55005110847443
C          122.97451171581781        7.11681645133083        0.46831306280840
C          122.37799990773821        7.76945873562030       -0.61472782148644
C          122.41350497451741        9.18976278687900       -0.70394620734453
N          122.44111695574414       10.33812744363895       -0.77251395755520
C          121.74724911247404        7.01672423972906       -1.60962176673161
C          121.71234980899229        5.63670618853448       -1.51831463086297
C          123.48791517133030        2.81066821257284       -0.32239276227721
C          124.78347585452210        3.44931759867541       -0.47018637754505
C          125.70402567859573        2.46601190644371       -0.39713380206424
N          123.64274196513195        1.46593391118883       -0.18506252039755
C          124.97068287743377        1.22842463769802       -0.21395695171848
C          125.60669377190968       -0.01782626453454       -0.05544671052603
C          124.97229381480331       -1.26191627806711        0.11168097555138
C          125.61452219779213       -2.51697054043311        0.28401696991367
C          124.64692342148544       -3.47881556830799        0.37142157751880
C          123.38193406482029       -2.84071416703434        0.24327351278723
N          123.63004204551643       -1.50153408187712        0.10083758191234
C          122.11928242350371       -3.44281817142118        0.27399018060860
C          122.08682000996399       -4.91914790766304        0.39870236700588
C          121.46039541395074       -5.52542931451837        1.49029021249505
C          121.42752364326645       -6.90325075900727        1.60827306518729
C          122.01903764326596       -7.70526595552193        0.62772059508043
C          121.98289654069112       -9.12369627668580        0.74240455809249
N          121.95259532143254      -10.27030017170840        0.83461252971854
C          122.64582012218244       -7.10376924622661       -0.46764166619126
C          122.68027794469158       -5.72519976072510       -0.57590220703483
C          120.90251304697311       -2.75768811058683        0.18944949932521
C          119.59869342903578       -3.40322132540469        0.16678862475406
C          118.68523092895863       -2.41579931253453        0.08042291801003
C          119.42978978451110       -1.16930203677955        0.03797331925178
N          120.76189187274954       -1.41443839305306        0.09582842262686
H          117.73146815888397        0.08332121462962       -0.04142874542512
H          117.70731599094097        2.72376894260230       -0.13367227356914
H          119.58855161815664        4.61710623682350       -0.28278761017474
H          121.49396744412759        0.85369083264166       -0.15484330065370
H          123.39368966850317        5.23446810722784        1.39742875564603
H          123.46148728569690        7.69711967561385        1.24323221452212
H          121.28798966492769        7.51889062004689       -2.45302826644454
H          121.23465878825283        5.05663521953898       -2.29986642852398
H          124.94513916312644        4.50400559200476       -0.62319610446188
H          126.77735390488972        2.54649975807803       -0.45931304213616
H          126.68192248237979       -2.65794604127164        0.33452572083818
H          124.79346775236959       -4.53620123637283        0.51969881315899
H          122.90878581730307       -0.79470157549475        0.00152380195072
H          121.01138347717406       -4.90688831357313        2.25906782249445
H          120.94467622181271       -7.36593903294373        2.46100861566451
H          123.10185200005519       -7.72210237262221       -1.23191564602990
H          123.15461900678486       -5.26346143966889       -1.43459177703411
H          119.43083633210922       -4.46764980747102        0.19926306102530
H          117.61008202638331       -2.49187102440520        0.03837655745879
C          201.89384503425305       -0.10948915521213        0.00983399174062
C          201.28936898856614       -1.30555977889328        0.37425429211134
C          201.94575221602815       -2.50515648137776        0.76908409134293
C          200.98733992742069       -3.44236610592826        1.03304744332047
C          199.71429251000336       -2.84818713810557        0.79787888721675
N          199.94718625594177       -1.55861393882230        0.41328906553411
C          198.45307068351707       -3.43701727011659        0.94354340761394
C          198.42682290346127       -4.86322171678895        1.34685792393082
C          197.80625862146758       -5.25079539162621        2.53696111517670
C          197.78316711113257       -6.57979978180653        2.91957215341163
C          198.37908724933808       -7.55243120022725        2.11108005152239
C          198.35611979955635       -8.92187564248795        2.49908371084105
N          198.33547986636503      -10.02911017999512        2.81173586088546
C          198.99881621085603       -7.17038616603202        0.91767038628409
C          199.02325233150299       -5.83857754455523        0.54430531833328
C          197.23434888088994       -2.78643362741982        0.73398010234999
C          195.94137843161292       -3.44123505086256        0.82031024751896
C          195.01684042942099       -2.49731876579257        0.54802665661403
N          197.07368933658807       -1.47760398109517        0.39705807674363
C          195.74538192349391       -1.27040476489906        0.28897015332110
C          195.10412585005992       -0.05863610697533       -0.03527975864082
C          195.73320357721033        1.15814528470541       -0.35614696972932
C          195.08502864224664        2.39131219880425       -0.63232418630991
C          196.04827907182576        3.32745841805894       -0.88727677855640
C          197.31632190235547        2.69142380211329       -0.78160092736122
N          197.07411055120522        1.38459916748083       -0.45116323206153
C          198.57689681278302        3.27527794191303       -0.94778684571440
C          198.60407382251398        4.70734858664893       -1.32746746018990
C          199.21683631765737        5.64706602482994       -0.49482941222645
C          199.24004461724687        6.98615432960570       -0.84034618522915
C          198.65268389267669        7.41200239954996       -2.03545651878909
C          198.67605103979329        8.78923045464801       -2.39480541923273
N          198.69420079077935        9.90294006467163       -2.68374833920285
C          198.04169783814979        6.47528942029766       -2.87434104681832
C          198.01647203031860        5.13855380868559       -2.51922894686424
C          199.79642332366453        2.61090485222631       -0.77852346912436
C          201.09803111274314        3.21594845586768       -1.01670946235127
C          202.01560900020687        2.26572970791784       -0.74821398046683
C          201.27587286014932        1.07904830344390       -0.35527000865626
N          199.94236373416152        1.32076361009726       -0.39533406144111
H          202.97913473410347       -0.11333737363783        0.01402420166158
H          203.01519378983747       -2.62083888567730        0.84354334212650
H          201.14235213998347       -4.45445383033586        1.36996929258610
H          199.21951208794164       -0.88682687492235        0.19320065075676
H          197.35368241286548       -4.49781085525642        3.17218598139148
H          197.30533664604877       -6.87188500037898        3.84735417882225
H          199.45805027298661       -7.92191953824191        0.28621993715908
H          199.49230855376149       -5.54897892588123       -0.38930528478599
H          195.78404880308670       -4.48454154839874        1.04100105508227
H          193.94460028260286       -2.60162999413223        0.50500332587347
H          194.01731760796400        2.53858762448067       -0.62302802201914
H          195.89680626504753        4.36982602352446       -1.11541308580891
H          197.79888072152249        0.69337903740808       -0.28817450337327
H          199.66175257740355        5.32257049387127        0.43898818197055
H          199.71123371264505        7.70994558212989       -0.18575680641963
H          197.58982776886432        6.80090014504871       -3.80395630930556
H          197.55353720303185        4.41377141056935       -3.17944871859363
H          201.26144298411603        4.22558731205701       -1.35758660033830
H          203.09075183218016        2.32855184986482       -0.80836606198783
C          127.01758540489554       -0.03380164395090       -0.06074798656194
C          128.23399664752205       -0.04813344872127       -0.06286681149757
C          137.92376398726034       -0.08422822706440       -0.07352294996423
C          139.14208481913943       -0.07482183027762       -0.07435751316468
C          148.83763237693611       -0.03616477385403       -0.03337322251770
C          150.05610537649574       -0.03214071220219       -0.02804289472064
C          159.75108495127088       -0.03925697963438       -0.03312427915414
C          160.96949033618120       -0.04404234360593       -0.03921122985182
C          170.66487968361801       -0.04763264413316       -0.04416226455446
C          171.88334917401156       -0.04481611410389       -0.04301846105872
C          181.57524433967743       -0.03168639945387       -0.04640740759837
C          182.79339895670580       -0.03368347867131       -0.04865234201233
C          192.47787754346700       -0.03891279503023       -0.04356441016473
C          193.69458433214737       -0.05015051825387       -0.04014503229516
C          129.64394553189433       -0.05740354707483       -0.06911027014085
C          130.27270121891812        0.85412216879960       -0.93710230942920
C          129.63221019932152        1.79000427453466       -1.78988032821198
C          130.59987893393051        2.43478358056721       -2.51065118956248
C          131.86014153151936        1.90022304781764       -2.12768443427777
N          131.61334706848083        0.96339320845487       -1.16109245836862
C          133.11847501743827        2.23911890947684       -2.64097048661312
C          133.13973329334544        3.23220416809677       -3.74146519417177
C          132.47127322005451        2.98022167889436       -4.94190004429968
C          132.49529284208882        3.90582661012876       -5.96966106070571
C          133.18687550260228        5.11055952671409       -5.81218736960203
C          133.21058690875668        6.06650322545336       -6.86681018613125
N          133.22954182675340        6.83850563351580       -7.71989259651999
C          133.85555277683346        5.36885788285587       -4.61188506595626
C          133.83278285463274        4.43596140184439       -3.59098545526573
C          134.33899292543262        1.71821785263844       -2.20766328914597
C          135.61178623384896        2.01280361672481       -2.84046746462514
C          136.55160043173339        1.35687160550093       -2.12878476872542
N          134.52476288611697        0.87612722432753       -1.15382515900062
C          135.85339000810308        0.66312739221878       -1.06555466270955
C          136.51681563785968       -0.08852202931302       -0.07367179022724
C          135.88453668102352       -0.84952546838509        0.92921790051736
C          136.51892242396755       -1.56310647099599        1.97791184718882
C          135.55028976227433       -2.20850485490104        2.69673988109486
C          134.29362043239760       -1.90958576863557        2.10389308496562
N          134.54469930354972       -1.07012856302056        1.05175057753915
C          133.03566283887673       -2.37282883648791        2.50868057000558
C          133.02059717660305       -3.34472809643078        3.62808531674319
C          133.68163439945403       -4.57001384197710        3.51243917486954
C          133.66649477823839       -5.48034493097470        4.55387088525120
C          132.99207317176521       -5.17684597724070        5.74022919803601
C          132.97729915422136       -6.10952479419115        6.81565755539480
N          132.96497043748587       -6.86225537990683        7.68590726288738
C          132.33240417573373       -3.95031407019168        5.86278603676778
C          132.34606492263572       -3.04762278546772        4.81484791182801
C          131.81223516937277       -1.99235441925234        1.95298448477356
C          130.53216311739450       -2.54695345134773        2.35590281250149
C          129.59258321298202       -1.90132583225839        1.63454949541241
C          130.29969912190185       -0.96312648134319        0.78572623001436
N          131.63159702269357       -1.05498408487200        0.98378296982199
H          128.56690352389754        1.94498659837506       -1.84154883835663
H          130.45482642793917        3.21588253629286       -3.23883655698630
H          132.32919595748609        0.42522655539768       -0.68448015843649
H          131.94592293837673        2.04106312528477       -5.07419209340172
H          131.98035336283979        3.69983058327263       -6.90068335273796
H          134.39020950207495        6.30290624034769       -4.48505346110287
H          134.34325394953299        4.64406042006330       -2.65747884107133
H          135.74490756030480        2.62134691591476       -3.72014824742431
H          137.61479353593489        1.31666359072085       -2.29967068849511
H          137.58011228968113       -1.56832768040621        2.16292116261385
H          135.69173093028616       -2.82637164190922        3.56832421770038
H          133.83103357637742       -0.66770275654245        0.45359422079031
H          134.19490793080374       -4.81498115039438        2.58935467324939
H          134.17539290248422       -6.43183244925957        4.45350521582705
H          131.81206643391897       -3.70992634123269        6.78247170730392
H          131.84383615732006       -2.09247640751408        4.91824356511341
H          130.39318441495800       -3.33133340406602        3.08205709223555
H          128.52249105267714       -2.03104550473327        1.65654155400140
C          140.54873516719113       -0.06923471537463       -0.07411486963076
C          141.18092039679857        0.89235344390608       -0.88733896392289
C          140.54954028071111        1.90362471099917       -1.65473205697818
C          141.51871638636169        2.57218881504231       -2.35228561926254
C          142.77178622622444        1.98344860112610       -2.03278846037645
N          142.51986917987529        0.99000068477547       -1.12542723840254
C          144.02766719862919        2.32517878022113       -2.55169050015844
C          144.04605529291058        3.35752590425122       -3.61435489280217
C          143.33234867008861        3.17182321142825       -4.80103671890489
C          143.35303353379800        4.13438701316389       -5.79428512662935
C          144.08671881765270        5.31090289662962       -5.61539777321563
C          144.10696777920671        6.30513844863080       -6.63405559430519
N          144.12274925578535        7.10942253958463       -7.45688657763027
C          144.80068084384664        5.50325005999996       -4.42880801258752
C          144.78071999622810        4.53377378305882       -3.44270661851459
C          145.24745415121390        1.77754654603466       -2.14997901457052
C          146.51681508823489        2.07338393073903       -2.78896871324667
C          147.45940153678853        1.40747278389014       -2.08990199305840
N          145.43690678368097        0.92007325336649       -1.10939224282504
C          146.76590190552588        0.70606557101876       -1.02900339129151
C          147.43137091991366       -0.04517599664519       -0.03824108845342
C          146.79727316153944       -0.81456807915667        0.95766537058619
C          147.42630234790443       -1.52550860884127        2.01085706090288
C          146.45721603543294       -2.19752795783708        2.70510065109475
C          145.20669431824751       -1.91850391493875        2.09082919208309
N          145.45969114908721       -1.05876983211438        1.05600069332374
C          143.95269783479003       -2.43172152323182        2.44679914212671
C          143.93624064148591       -3.44575497597512        3.52698683198217
C          144.66187904324829       -4.63289716681841        3.39894537022845
C          144.64493415586114       -5.58177991086972        4.40523442790912
C          143.90305566692356       -5.35663403108867        5.56861421353943
C          143.88686717139151       -6.32920328225849        6.60807061901468
N          143.87434234394141       -7.11540224343495        7.44818462873807
C          143.17721721361266       -4.16933101561333        5.70329366891607
C          143.19333622687827       -3.22789452363449        4.69019989954872
C          142.73414807266940       -2.06785202686530        1.87042658002598
C          141.46779769213092       -2.70255568962053        2.18699964330473
C          140.52532937895259       -2.04577583617190        1.47914901194518
C          141.21589189356857       -1.01508213738890        0.73144239429618
N          142.54368953746464       -1.07275368389421        0.96098531304679
H          139.49031578500743        2.09964583740450       -1.66000075380361
H          141.37924002721749        3.40727696567646       -3.01905733821323
H          143.23142566510643        0.41115581311007       -0.69228196705575
H          142.77378103870740        2.25472114800575       -4.95097156478202
H          142.80275986976369        3.97926164430490       -6.71490985377739
H          145.36805470250400        6.41531012259388       -4.28520845512842
H          145.32534078294458        4.69190343569413       -2.51875330443516
H          146.64606337616567        2.68905148559244       -3.66427315624418
H          148.52153202227362        1.36631149853956       -2.26738491866481
H          148.48381244956300       -1.51184061007748        2.21548512672182
H          146.59478387377558       -2.82083706065585        3.57341480509781
H          144.74977719263839       -0.66151415072018        0.45002202758615
H          145.22702027574550       -4.81847267856199        2.49244756648133
H          145.20461992284538       -6.50317971592137        4.29490926363885
H          142.60375882646628       -3.98984107243571        6.60512747624030
H          142.63929805939745       -2.30296716128490        4.80355365376964
H          141.34048925150725       -3.54705246962364        2.84464985053738
H          139.46528932446438       -2.23493030544362        1.43753053738801
C          151.46240234456329       -0.02716550700250       -0.02731029028382
C          152.09497263251851        0.93029992748946       -0.84536973920644
C          151.46415967956693        1.94195097995947       -1.61271611473932
C          152.43321970063093        2.60619152803529       -2.31462822805746
C          153.68528733729582        2.01342940362095       -1.99877467820856
N          153.43324029805191        1.02289674042280       -1.08818094982640
C          154.94021606211464        2.34738048035876       -2.52467115529583
C          154.95898841940095        3.37756854708984       -3.58940588504324
C          154.23893054040863        3.19331998336433       -4.77248387999268
C          154.26100268488497        4.15344146561524       -5.76805642132286
C          155.00249045819990        5.32596999543648       -5.59504878849484
C          155.02627266240276        6.31728424438668       -6.61651332172569
N          155.04335085576042        7.11771572743662       -7.44298824801183
C          155.72209277437730        5.51718239727725       -4.41171977129568
C          155.70083377813148        4.55005086025190       -3.42333536891894
C          156.15891723869510        1.79270233913150       -2.12927031122367
C          157.42576995053679        2.07796480229347       -2.77785441831955
C          158.36837555377579        1.40638133827195       -2.08425302513413
N          156.34948019628493        0.93631261303212       -1.08800894879709
C          157.67744213647296        0.71265160531810       -1.01668637194479
C          158.34483265249042       -0.03998736955978       -0.02825412156132
C          157.71288718634690       -0.79956209346600        0.97653659926116
C          158.34458652093264       -1.50787326196833        2.02989050147880
C          157.37557626066879       -2.16680848349235        2.73681281483832
C          156.12256444826528       -1.88271504603280        2.13000800486484
N          156.37427921185892       -1.03287902510285        1.08673940616412
C          154.86719840024205       -2.38420327180256        2.49795817113776
C          154.84877821944994       -3.38691311805406        3.58861383491694
C          155.56609194589618       -4.58020083977461        3.47145360015485
C          155.54511543579571       -5.51822767323859        4.48784028967687
C          154.80747276912632       -5.27588435246682        5.65045652213448
C          154.78622610664667       -6.23746185834338        6.69999349125726
N          154.76970416622220       -7.01399681254932        7.54897129851106
C          154.09023301534972       -4.08218892512831        5.77441156002496
C          154.11044049039029       -3.15165521059029        4.75142253954904
C          153.64791000299212       -2.01902302073687        1.92393128949630
C          152.38040434505956       -2.64682673605356        2.24979201160763
C          151.43785879231956       -1.99300137635746        1.53934250832152
C          152.12932642253702       -0.97002767323172        0.78197499817392
N          153.45764818497949       -1.03028423786033        1.00743383806112
H          150.40553755644311        2.14139650704519       -1.61456463589843
H          152.29434393504820        3.44064603436954       -2.98231783673142
H          154.14426369721008        0.44213334831979       -0.65670905129582
H          153.67462724928819        2.27898275043090       -4.91781648550138
H          153.70596652309621        3.99943970079068       -6.68600578254606
H          156.29507726393419        6.42640473065108       -4.27248313007174
H          156.25040937136032        4.70703931728395       -2.50212592804967
H          157.55315745493098        2.69078836392735       -3.65542011312381
H          159.42880854834397        1.35673911158632       -2.26946067928955
H          159.40384936024236       -1.50134811134303        2.22590727321332
H          157.51514438121896       -2.78465705857812        3.60870627412948
H          155.66273082330605       -0.63427588514693        0.48355632035751
H          156.12751392391704       -4.77950267955114        2.56555639611612
H          156.09813463829164       -6.44461712999925        4.38590754613866
H          153.52001270215351       -3.88930867632701        6.67554067985336
H          153.56296662244497       -2.22181616258369        4.85625113256370
H          152.25249827299095       -3.48577677414503        2.91439885261420
H          150.37702998517668       -2.17885748967423        1.50277171865195
C          162.37576414662047       -0.04514807954765       -0.04558629885667
C          163.00852008543384        0.90989240109790       -0.86614568698018
C          162.37802257078712        1.92073071995381       -1.63492076700709
C          163.34699663654391        2.58112429049367       -2.34050639471870
C          164.59875244353933        1.98766260310305       -2.02455351012577
N          164.34655078877785        0.99988724928815       -1.11104972095635
C          165.85338215260191        2.32011462616667       -2.55205781331182
C          165.86986351989503        3.34490950522576       -3.62203917315818
C          165.14958288781605        3.15147744383678       -4.80355487453272
C          165.16713304668752        4.10613983061511       -5.80437563853763
C          165.90411513577689        5.28248626577030       -5.63821065065897
C          165.92153950002410        6.26904251360585       -6.66438065649306
N          165.93421200731231        7.06645874940419       -7.49383476600082
C          166.62441532774611        5.48260042327427       -4.45677283346583
C          166.60779415586228        4.52076003561893       -3.46306502715778
C          167.07272395722899        1.76889952316116       -2.15386558013652
C          168.34013231453119        2.05570706020954       -2.80061403659632
C          169.28310973057330        1.38878939644968       -2.10297782408628
N          167.26332197069493        0.91564971128828       -1.11005255752683
C          168.59172657754394        0.69558639158484       -1.03538894691838
C          169.25858793363307       -0.05408398076393       -0.04433096791276
C          168.62585283700761       -0.81748856729382        0.95704209705702
C          169.25644093402892       -1.52713633729135        2.01010195798256
C          168.28749165183157       -2.19233509600690        2.71119109666623
C          167.03550972746123       -1.91010377771028        2.10152088644332
N          167.28763188265862       -1.05579273689897        1.06209605228419
C          165.78061225505363       -2.41586697937359        2.46555087935072
C          165.76351353978265       -3.42350011191134        3.55163670647278
C          166.48301101788138       -4.61490643891208        3.42905159594149
C          166.46385606662639       -5.55748158154581        4.44125036544270
C          165.72586895321783       -5.32164208573968        5.60497458140664
C          165.70628316408246       -6.28822716473487        6.64992630685522
N          165.69020653804264       -7.06871696692601        7.49528541046686
C          165.00654043007941       -4.12977380007603        5.73438493641110
C          165.02494916681195       -3.19465470461927        4.71556008158783
C          164.56113573417326       -2.04879940040628        1.89350605212047
C          163.29318837520566       -2.67610674209612        2.21879795245165
C          162.35018475075154       -2.01659215194068        1.51419060114301
C          163.04220002290893       -0.99189283585457        0.75958419361696
N          164.37074304524575       -1.05567260219456        0.98172974676010
H          161.31974736739375        2.12169028736933       -1.63585934227507
H          163.20847597139235        3.41382154075927       -3.01048183902334
H          165.05718741556296        0.41904793590170       -0.67906614887071
H          164.58830588562421        2.23437390365261       -4.94305999246293
H          164.61176838424592        3.94506417399421       -6.72091051166181
H          167.19403506180217        6.39475325773336       -4.32301844626791
H          167.15751239288770        4.68494197935331       -2.54319391395126
H          168.46777720533487        2.66676349074575       -3.67938037613626
H          170.34404726731344        1.34139411620413       -2.28587995430251
H          170.31492211087320       -1.51753367358922        2.20991000812772
H          168.42633418980466       -2.81301606795288        3.58118054335902
H          166.57681071571611       -0.65721969195841        0.45805910176796
H          167.04480689663123       -4.80902492015768        2.52226181781022
H          167.01864815256735       -6.48234003117548        4.33518108706445
H          164.43619973557063       -3.94187693606809        6.63648671588232
H          164.47596687975886       -2.26618919093019        4.82458953330132
H          163.16521608287076       -3.51819351995865        2.87940736943699
H          161.28882456136841       -2.19998473992693        1.47919436933980
C          173.28972867748652       -0.03939189396100       -0.04537583979495
C          173.91984848922627        0.91746071957920       -0.86589082410922
C          173.28553872248654        1.92423923468752       -1.63692847805669
C          174.25244499517390        2.59095310070976       -2.33925892850599
C          175.50694816480041        2.00542463161852       -2.01931520516866
N          175.25803144858028        1.01567871619533       -1.10683289673838
C          176.76121748885234        2.34718101602266       -2.54140621711239
C          176.77511084243639        3.37418935165993       -3.60940624395028
C          176.06176918160423        3.17718625529925       -4.79452925110282
C          176.07752719448706        4.13301636462543       -5.79427348545216
C          176.80575775994433        5.31413230602977       -5.62349314322541
C          176.82115280081419        6.30138308233557       -6.64902129428916
N          176.83501326485643        7.09786689391850       -7.47938280730991
C          177.51866877387761        5.51807132697547       -4.43823983566477
C          177.50384517699874        4.55509525698713       -3.44557357699116
C          177.98230278403935        1.80135522583535       -2.14071957760365
C          179.25071299971404        2.09860334235472       -2.78085188235959
C          180.19408972174901        1.42942675032192       -2.08594798163984
N          178.17283351133830        0.94128562838141       -1.10275187111244
C          179.50181018093684        0.72434402756936       -1.02654878999686
C          180.16850650806751       -0.03555784380203       -0.04379688105529
C          179.53890316360690       -0.80623009747661        0.95359184517440
C          180.17390832347741       -1.52098146215503        2.00075803585227
C          179.20714840096622       -2.18434526626541        2.70651069677251
C          177.95232290845004       -1.89685803632393        2.10507915714536
N          178.20075468872912       -1.04169469142686        1.06547469453363
C          176.69739861320042       -2.39722151590162        2.47607095579671
C          176.67921050386423       -3.39791699223291        3.56856947295636
C          177.39301783200125       -4.59345733096780        3.45373450487810
C          177.37102448727413       -5.52840955624641        4.47300867628644
C          176.63578777731959       -5.28075682553555        5.63601649378726
C          176.61280884688617       -6.23938038127750        6.68819766421414
N          176.59356821384910       -7.01364784221847        7.53919813235346
C          175.92220732261848       -4.08463021251428        5.75772740469382
C          175.94355066476675       -3.15719467035710        4.73203011036281
C          175.47737918424585       -2.03004835914004        1.90503955759037
C          174.20978815539658       -2.65611129699167        2.23406754524666
C          173.26665093550619       -2.00201301774912        1.52476513568447
C          173.95784815398036       -0.98063976036681        0.76481598587462
N          175.28638298875001       -1.04179608647664        0.98809607558616
H          172.22599644900916        2.11858484907236       -1.64114471726033
H          174.11066506261508        3.42279093033129       -3.00960200431715
H          175.97134538130729        0.43929272421745       -0.67325897264563
H          175.50745322906548        2.25643762971062       -4.93777342051295
H          175.52756554889922        3.96914348518094       -6.71355835128324
H          178.08118283148244        6.43407551901274       -4.30075406953191
H          178.04789275632754        4.72216879845528       -2.52286176514945
H          179.37878045823027        2.71771027945102       -3.65389761224257
H          181.25594957000081        1.38817324635444       -2.26549145088747
H          181.23373495399497       -1.51513383934512        2.19395794296606
H          179.34944842954462       -2.80740608879240        3.57423203839675
H          177.48702309177395       -0.63998296397597        0.46695398533904
H          177.95229581877405       -4.79720967692634        2.54751048412596
H          177.92133027813375       -6.45661492813074        4.37297065726607
H          175.35391158596335       -3.88749470553069        6.65915225752281
H          175.39886982246099       -2.22550113604781        4.83492950850918
H          174.08225219504985       -3.49432674117529        2.89966541124174
H          172.20556088437658       -2.18677464173734        1.49034984277612
C          184.20048543424599       -0.03191200484131       -0.05042876357915
C          184.82982812476803        0.97547927652719       -0.80775718502149
C          184.18965993427170        2.01987601942046       -1.52272152925290
C          185.15567242243552        2.75113231403217       -2.15806400785904
C          186.41617955217876        2.17126962701846       -1.85033322762145
N          186.16989916524221        1.11283731649084       -1.01741990219587
C          187.67367283324623        2.59434492652774       -2.29871156927118
C          187.68313246523951        3.71359773697153       -3.27085506606655
C          187.03632496785684        3.58511152934716       -4.50253883730077
C          187.04652693409477        4.62367967272213       -5.41610214155955
C          187.70167204474396        5.82002663556521       -5.10956230986472
C          187.71131372859071        6.89197061715877       -6.04633582043824
N          187.71864723669799        7.75771341329448       -6.80441183723849
C          188.34686049157304        5.95544271674160       -3.87670173647873
C          188.33829141544160        4.91026303329684       -2.97063603574064
C          188.89955033641886        2.05010793292877       -1.91071357645725
C          190.17998210980195        2.46844380347527       -2.45270942573615
C          191.11985890587468        1.73668308045256       -1.81921410488518
N          189.08101966218896        1.06588625763901       -0.98864680117341
C          190.41249522179885        0.86786268865731       -0.89956567280461
C          191.06918264365828       -0.03708731317138       -0.04368984165764
C          190.44325891686009       -0.95143141756672        0.82400460714045
C          191.08801000565884       -1.82331206769273        1.73894472491272
C          190.12267966028543       -2.55176010857621        2.37874091619587
C          188.85948129688401       -2.15093619234519        1.86495741895325
N          189.10289503152913       -1.17189804752908        0.93996703510140
C          187.59991056922297       -2.64891816470176        2.22147023971714
C          187.57975542652773       -3.75206448205320        3.21148342115782
C          188.22761122167228       -4.96121572644477        2.94784447979336
C          188.20736614268750       -5.98818480589034        3.87453385190385
C          187.54056014803336       -5.82117081004935        5.09186479546694
C          187.52190814282065       -6.87361391924878        6.05032153622295
N          187.50747054681696       -7.72332875629464        6.82610813602830
C          186.89176308163445       -4.61242196465638        5.36141335188024
C          186.91056256091989       -3.59239155382266        4.42759571077735
C          186.37707976154874       -2.19244991006263        1.72627975865144
C          185.10054060146265       -2.80939681482084        2.03784574000883
C          184.16065443021631       -2.08427008455394        1.39699094518283
C          184.86255218957331       -1.02745762964670        0.69686967510801
N          186.19274535813602       -1.13178190420930        0.89258739344992
H          183.12644949368834        2.19310550345663       -1.53610546138422
H          185.00994975799301        3.62322521529742       -2.77422206672488
H          186.88694173476392        0.52001560196874       -0.61301179460126
H          186.53833986231248        2.65425976098846       -4.74969802317244
H          186.54886260484835        4.51330320976228       -6.37243296444899
H          188.85210751370394        6.88293195829115       -3.63411120877023
H          188.82926129428623        5.02346184224084       -2.01074451240646
H          190.31893323534530        3.20842811599105       -3.22406043388785
H          192.18930868749882        1.75460286857007       -1.95489502092391
H          192.15362096524467       -1.87367926222377        1.89229723920013
H          190.27126148379131       -3.29280191284859        3.14697598805461
H          188.38372104183097       -0.67671472137689        0.42350500111534
H          188.73402167858882       -5.10068914273203        1.99937681688413
H          188.70655250990916       -6.92579877809480        3.65983972224563
H          186.37616262032515       -4.47821196470402        6.30510150774735
H          186.41643826798551       -2.65212500415628        4.64458844370149
H          184.96505277224614       -3.68923541410952        2.64564474298430
H          183.09472804125403       -2.24104058566581        1.37229603102627
