132
 energy: -252.392905242677 gnorm: 0.000480054483 xtb: 6.5.1 (b24c23e)
C           10.31006738064884       -0.43711853045621        0.18535310450352
C           10.92155858132947       -1.16565146319215       -0.82668697243276
C           10.27407322558593       -1.96460495307597       -1.81044186503091
C           11.23683750118411       -2.49967288789883       -2.61906905806378
C           12.50525927047984       -2.05811763938830       -2.14527705109024
N           12.26312158525442       -1.24833724029725       -1.07185029036882
C           13.76988708945400       -2.36623420726068       -2.65942123206061
C           13.81406813668724       -3.27526018972224       -3.83161760785235
C           14.37751592488904       -2.82827371147799       -5.03015028383955
C           14.41367249021707       -3.67172756853934       -6.13318567649398
O           14.94200142588368       -3.30024156044714       -7.34173819183198
C           13.89644879902502       -4.96179815013865       -6.04718089115010
O           13.92170727406760       -5.81424932575435       -7.11960155846578
C           13.33766994911220       -5.41088595890534       -4.84953018975959
O           12.84097729768788       -6.66980384062718       -4.77480161705849
C           13.29382632767757       -4.56684170804878       -3.74587868809854
C           14.97875419451385       -1.88505695132589       -2.15003274586206
C           16.28306032964748       -2.30067524235813       -2.63340587056738
C           17.19496887408921       -1.63770578771575       -1.89223772473653
N           15.12140174705451       -0.99701592917943       -1.12768092101440
C           16.44703692615104       -0.81974492007590       -0.95744186728380
C           17.07263412713077        0.04202929610976       -0.03275726326226
C           16.42592650015294        0.86298304149892        0.91071675084712
C           17.05387479651142        1.78847825260471        1.78544667548704
C           16.08004783447591        2.38852760512248        2.53485007615666
C           14.82716504421992        1.83431111444227        2.15186536412900
N           15.08750312270981        0.92636059768620        1.15891087962284
C           13.56323804026696        2.14517640715811        2.66493097242324
C           13.50483588575421        3.15525110914927        3.74961588643419
C           14.18566726987446        2.94885241804153        4.94985710718311
C           14.12227162687259        3.90117030053743        5.96051148046134
O           14.77403605234363        3.70675621714048        7.13284344733061
C           13.38174304886141        5.06910658030302        5.77090061248836
O           13.34011905888604        5.99136343727283        6.78342503449119
C           12.70420819007505        5.27639317859812        4.57209080074939
O           12.00169052208073        6.44742209781218        4.45709952114723
C           12.76021070091600        4.32375398704505        3.56288773717405
C           12.36212557139923        1.57480386644717        2.22766383922873
C           11.06571587392151        1.83261290076038        2.83525899022611
C           10.16700945400902        1.10297882166036        2.14370772386324
C           10.91319623288185        0.39697326006130        1.11761651473573
N           12.23281749567501        0.69544303702102        1.20632647292277
H            9.22981619778836       -0.52777509744737        0.23993008821485
H            9.20647031777036       -2.09721319006865       -1.88444259885640
H           11.08645898202226       -3.14028655893136       -3.47273406145867
H           12.98491897123761       -0.77622336767889       -0.53761541712045
H           14.76923216937328       -1.82089304875837       -5.10810722000291
H           15.28557639480968       -2.39801874484795       -7.30320999230162
H           14.34505504063737       -5.35055744316015       -7.85960429172443
H           12.96862507693927       -7.09952779102167       -5.63666014560524
H           12.87485802660977       -4.93294367392335       -2.81747452659625
H           16.45671335276693       -3.01867397177694       -3.41853039156449
H           18.27063576866808       -1.68471657749735       -1.94969551555606
H           18.11556751408481        1.97220518174739        1.82218360613559
H           16.21502713563783        3.15240846125740        3.28296217944688
H           14.37537470829488        0.38468347439085        0.68020221899493
H           14.74706299596784        2.03868148260120        5.11684435575449
H           14.60606128385532        4.47287377011744        7.70606322332194
H           12.78377388472669        6.73075020234072        6.49089773677376
H           11.55934511624460        6.49918980896080        3.59969203061670
H           12.24255741022550        4.49861377487377        2.62702330105255
H           10.89336670132710        2.47160895949966        3.68646517887865
H            9.10150377035127        1.02473111389391        2.29363783441448
C           33.01132929582481       -0.28072814725568        0.37038057248986
C           32.39993755932661        0.51763290126219        1.32835900256823
C           33.04721679060701        1.27435806512371        2.34507694829105
C           32.08385603733104        1.92105854091134        3.06677532683645
C           30.81540320897536        1.56740422142084        2.52431885151034
N           31.05795473256246        0.72991944615071        1.47248490120973
C           29.55045678586844        1.98400358498966        2.95408007088704
C           29.50603720067591        2.89278924907916        4.12657433270326
C           28.94148200210097        4.16435143804743        3.99218950040591
C           28.90430589594553        5.02231749885653        5.08394050776334
O           28.37511353236529        6.28495082550009        5.02522353505588
C           29.42108159016284        4.61766400667382        6.31210539676331
O           29.39422163761643        5.44350774680623        7.40512642000262
C           29.98100481749848        3.34639336124416        6.44865694277850
O           30.47709311995078        2.96045268706722        7.64952791905984
C           30.02646375502144        2.48821261796784        5.35600782883530
C           28.34116774189751        1.60679347687990        2.36457142755908
C           27.03733492695866        1.96748027341528        2.89141426445660
C           26.12463462702497        1.41402995429515        2.06613040836179
N           28.19757412812351        0.83897126254547        1.24924248322929
C           26.87168553931072        0.71592546696460        1.03809896030712
C           26.24532073837896        0.03658604286066       -0.02731297229789
C           26.89179548637663       -0.67153550944684       -1.05834166303155
C           26.26374075152394       -1.28837004476445       -2.17238305006454
C           27.23759327122224       -1.86413732026126       -2.94057417271019
C           28.49064013607623       -1.63032591531015       -2.30906687003908
N           28.23032927026638       -0.89523538119428       -1.18215548510931
C           29.75457125157693       -2.04858974024250       -2.73894064798483
C           29.81263647734812       -2.84783673783778       -3.98717549756241
C           29.13440987956496       -4.06322125940462       -4.08463568881737
C           29.19819662469079       -4.80543529155454       -5.25826276118493
O           28.54940727713431       -5.99101581762797       -5.36034121236340
C           29.93621712057365       -4.32976612098989       -6.34338431666092
O           29.97836242875106       -5.08136969578529       -7.48829179805191
C           30.61084093153421       -3.11535023979588       -6.24722600062803
O           31.31080284370002       -2.71118961288772       -7.35390994634472
C           30.55466999107797       -2.37473647032926       -5.07357046495286
C           30.95628082807496       -1.76542689262690       -2.07947651228506
C           32.25259322459005       -2.28858620151974       -2.48226518985649
C           33.15244282127527       -1.79776038814146       -1.60612197533323
C           32.40705332654839       -0.97923342865609       -0.66670021673542
N           31.08673293716494       -0.99348958014540       -0.97486572410505
H           34.09195103792904       -0.35327875872370        0.44186608558235
H           34.11503072037333        1.31697532299853        2.48928617616129
H           32.23368551883789        2.58902376027780        3.89932541060241
H           30.33633108865103        0.32713386163993        0.88401880460642
H           28.54952005001849        4.49038741519798        3.03594606163260
H           28.03255103717867        6.47259555494425        4.14149188845810
H           28.97021019776214        6.27534894247519        7.14036272387015
H           30.34792108203215        3.68761117162320        8.28064625654211
H           30.44666914036486        1.49836333298077        5.47898701806786
H           26.86475069437519        2.54722255489382        3.78372890808035
H           25.04900866423038        1.45505509580666        2.12885795349261
H           25.20194722983000       -1.27884534258066       -2.35896252221743
H           27.10265533388102       -2.39856807316398       -3.86664085121628
H           28.94234634679953       -0.56560928081005       -0.53867502833344
H           28.57494369361114       -4.45236241801100       -3.24379122566584
H           28.71741985570970       -6.35560472009879       -6.24497558041394
H           30.53280554118442       -4.61298108269428       -8.13249331851147
H           31.75103222631181       -1.86657908957405       -7.19167486985324
H           31.07019098864197       -1.42358319593967       -5.01095542996933
H           32.42406479325723       -2.95507861523057       -3.31230381584827
H           34.21823904111227       -1.96098013661099       -1.56956572284485
C           22.27328328222059        0.11666223422733       -0.09919319488751
C           21.04479274684019        0.12733986582024       -0.08814008450784
C           19.70078510317108        0.11941014418595       -0.07302426238415
C           18.47694595031427        0.09772876736349       -0.05023871935546
C           23.61723507521908        0.09659511082993       -0.09257202313139
C           24.84102541864229        0.06793118064305       -0.07638509102411
