302
 energy: -531.665973599167 gnorm: 0.000962008194 xtb: 6.5.1 (b24c23e)
C           28.85017976719016       -0.07189049967036       -0.00346257235256
C           29.47727760442791       -1.30974750346388       -0.06771297750040
C           28.86533609440903       -2.59452467629507       -0.13353212352645
C           29.85887805609108       -3.53148904437358       -0.18242816189553
C           31.10881944183436       -2.84897334393067       -0.14804126321354
N           30.82758816790878       -1.51514103387966       -0.07918836015627
C           32.37876688622569       -3.41352889502827       -0.17771177196398
C           33.59608305320184       -2.74916448479589       -0.14400574304306
C           34.87725469134008       -3.43203990664413       -0.17951936493833
C           35.82280290465800       -2.47103464417660       -0.13060958465482
N           33.78370015478732       -1.40282320466290       -0.07471888720020
C           35.11521851071946       -1.20473210913153       -0.06541754249545
C           35.76590803714534        0.04549285971264       -0.00229928276638
C           35.11348587635469        1.29135968738008        0.06147007783819
C           35.72041894664288        2.57481721061072        0.12631343308636
C           34.72323702756787        3.50950464280523        0.17488598715422
C           33.47732530963820        2.82285346665346        0.14101989401213
N           33.76582533876782        1.48638886802635        0.07263718026018
C           32.20866868811484        3.38773410412543        0.17112496387319
C           30.99026229977552        2.72058659521946        0.13815335734842
C           29.70296738332689        3.39733119456391        0.17415778265938
C           28.76327014558215        2.43188109125656        0.12547261283408
C           29.47741052061927        1.16667910698376        0.05976708469455
N           30.81486650687735        1.38014651146447        0.06948953787346
H           27.76536355326726       -0.08232975034167       -0.00313906708489
H           27.80036246006600       -2.76420306742623       -0.14160630199323
H           29.74988297443167       -4.60303118041399       -0.23757948185120
H           31.52145244620444       -0.77604464019033       -0.04155631768553
H           32.41269763372071       -4.49688200098702       -0.23343651524380
H           35.00235065545638       -4.50206771782510       -0.23452594675495
H           36.89592138752496       -2.57768863947525       -0.13655101494806
H           36.78467589062782        2.74769890167318        0.13421840051663
H           34.82940634834645        4.58122175743079        0.22943595015994
H           33.07448599465555        0.74461809348969        0.03543761840157
H           32.17579118735310        4.47106165181014        0.22658184878808
H           29.57268410665776        4.46691671897509        0.22924479309867
H           27.68901743893881        2.53139125807765        0.13164011354230
C          147.95876352457549        0.06674144324880       -0.01103976286744
C          147.33155797177193        1.28627182865955       -0.23245795997722
C          147.94338123314390        2.55235926527623       -0.46084678378068
C          146.94975748991479        3.47535389507654       -0.62878848867898
C          145.69987921000390        2.80255970386813       -0.50830343598720
N          145.98123066037431        1.48832611697137       -0.27045116075322
C          144.42988310412181        3.35862330976508       -0.60954394313982
C          143.21265705777927        2.70372572035210       -0.49188479074121
C          141.93139542762430        3.37646251233743       -0.61344893194679
C          140.98598527193747        2.42926697848180       -0.44314233225611
N          143.02524230451760        1.37691780971859       -0.25301575620368
C          141.69374709508656        1.18140535367089       -0.21862461520377
C          141.04318679875090       -0.05102705735495        0.00120287887826
C          141.69562472522699       -1.27877156598965        0.22191406009440
C          141.08880215087657       -2.54377384720967        0.44853485819933
C          142.08608045145408       -3.46457390395637        0.61562112516352
C          143.33192456376074       -2.78742767480777        0.49605084428322
N          143.04329823683651       -1.47047561424128        0.25867847337674
C          144.60063622588225       -3.34358075047196        0.59862537987254
C          145.81895998155261       -2.68565363765037        0.48243966991114
C          147.10632081349971       -3.35202419283068        0.60514417106246
C          148.04591523109792       -2.40032863641695        0.43506294127603
C          147.33164699506278       -1.15388465946062        0.20867332282572
N          145.99421463167218       -1.36471433330787        0.24439796214850
H          149.04357777890391        0.07734749360178       -0.01142870382647
H          149.00833826170864        2.71980115537666       -0.49005690230815
H          147.05865069778619        4.53121302227961       -0.81964834973203
H          145.28743221371110        0.75990698159653       -0.13938370398209
H          144.39581914997157        4.42614255804642       -0.80229253994603
H          141.80615506160476        4.43091354326733       -0.80342026603892
H          139.91284814368555        2.53418317487545       -0.46243816385703
H          140.02456033976858       -2.71449219543104        0.47757240651972
H          141.98001925047112       -4.52078630247881        0.80531835302548
H          143.73455383903473       -0.73918853977511        0.12849560276693
H          144.63363418135265       -4.41113855851521        0.79093240870640
H          147.23671299674709       -4.40592905219312        0.79567968747027
H          149.12017619627554       -2.49797917378458        0.45469831583168
C           37.16923130081566        0.06201195485893       -0.00522011709539
C           38.39410255953251        0.07276954490950       -0.00157609146670
C           39.73578174180537        0.08062191102219       -0.00003336692322
C           40.96662834832460        0.08078848930094        0.00038801398364
C           42.30357503742599        0.07890188341167       -0.00012884621813
C           43.53471531825876        0.07479245063122        0.00049869329345
C           44.87620887336047        0.07027301857802       -0.00115452525892
C           46.10127565070053        0.05716008556050       -0.00147516978733
C           55.88172402106178       -0.01534519928595       -0.00522669227505
C           57.10685822128035       -0.01709716438848       -0.00549148186961
C           58.44794279801688       -0.01568109924678       -0.00472415673085
C           59.67917190387594       -0.01198128181476       -0.00574886794727
C           61.01561437329493       -0.00737251934844       -0.00652645156798
C           62.24679456509715       -0.00236451219254       -0.00583260909692
C           63.58783950986291        0.00203586589161       -0.00451097857655
C           64.81295810424255        0.00375898972487       -0.00457349356721
C           74.58775115748297       -0.02220391492031       -0.00407397988000
C           75.81285799777763       -0.01990700028188       -0.00562034863053
C           77.15379199679407       -0.01355200221161       -0.00648840487772
C           78.38491033278889       -0.00469652281348       -0.00690846558194
C           79.72120309794069        0.00340550569620       -0.00734608591193
C           80.95233714249702        0.01144943122417       -0.00744112911843
C           82.29327963485918        0.01647158976176       -0.00865025312821
C           83.51838246094724        0.01691970899181       -0.00817446955877
C           93.29065200235823       -0.02786308279021       -0.00066836980901
C           94.51577087734609       -0.02624564742744       -0.00085474022633
C           95.85671032735974       -0.02018473913813       -0.00155414924969
C           97.08784262064731       -0.01247822794691       -0.00209559743616
C           98.42413543296530       -0.00444755852510       -0.00300246466877
C           99.65527134265749        0.00380906166171       -0.00227594309298
C          100.99620363187115        0.01064157551028       -0.00491330078953
C          102.22130703554944        0.01436223055231       -0.00368726825860
C          111.99603878169228       -0.01305853370269       -0.00302904414089
C          113.22117693130882       -0.01215563427955       -0.00211055138773
C          114.56223836905909       -0.00821952882916       -0.00382606822502
C          115.79342390188617        0.00028345250437       -0.00665490458938
C          117.12985694469674        0.00491629767431       -0.00619167102093
C          118.36102510528457        0.00938338984342       -0.00394817589608
C          119.70210340825210        0.01211986013129       -0.00342915040663
C          120.92726460831362        0.00931059805243       -0.00352511797995
C          130.70760633648516       -0.06588093290758        0.00474754783766
C          131.93264655916917       -0.07612558346781        0.00482412596064
C          133.27413102408696       -0.08177630853883        0.00644915244687
C          134.50521976099932       -0.08663565512077        0.00734560769302
C          135.84221090565194       -0.08896117240181        0.00567058931782
C          137.07326332052642       -0.08608573994633        0.00514223649378
C          138.41503220964876       -0.07818976408102        0.00693570289486
C          139.63986705424392       -0.06715846885492        0.00396592411819
C           47.50365137562825        0.05111735674074       -0.00163989800687
C           48.15005670812754        1.30262542181391       -0.01541742006080
C           47.54081126420652        2.58518495630042       -0.02947309814741
C           48.53754929274625        3.52292631855705       -0.04055720669549
C           49.78304625347890        2.83736657696314       -0.03360744438685
N           49.49753526634009        1.49953249281732       -0.01826761636676
C           51.05116554213242        3.40845956070222       -0.04107298093739
C           52.27600194253261        2.75961543841912       -0.03462861120129
C           53.54785156230202        3.46038305600997       -0.04375289571632
C           54.50629323172688        2.51091411745052       -0.03355021227151
N           52.48155711603019        1.41403272243830       -0.01921501826564
C           53.81557852585818        1.23433456215635       -0.01809067575981
C           54.47975602180236       -0.01024490609882       -0.00389702225650
C           53.83377072870584       -1.26177119576237        0.01120739911978
C           54.44327322005701       -2.54430430009261        0.02604536071565
C           53.44666594079192       -3.48206346885269        0.03760399446876
C           52.20095243222037       -2.79661585271273        0.02997052348683
N           52.48648447833022       -1.45863783383796        0.01407598735090
C           50.93294883535138       -3.36727675075166        0.03699144543136
C           49.70791949270844       -2.71815209606121        0.02961601333251
C           48.43624826991113       -3.41913780396599        0.03780855548810
C           47.47758567240500       -2.46983857815270        0.02692524969626
C           48.16789984327657       -1.19318055164972        0.01223592490737
N           49.50230292842944       -1.37280830071550        0.01417344515239
H           46.47639327419409        2.75679233176761       -0.03079848863706
H           48.42988982818352        4.59578270994574       -0.05259400448764
H           50.18741700677518        0.75548832214323       -0.01035340171347
H           51.07405413352190        4.49366186890634       -0.05350412107219
H           53.65847635473981        4.53333110551682       -0.05625873810006
H           55.57792554316312        2.63166910633074       -0.03579167234989
H           55.50774733807091       -2.71568700627052        0.02763899211169
H           53.55451238654561       -4.55489808516480        0.05028073486915
H           51.79662093453621       -0.71460736067084        0.00557382162904
H           50.90975463428146       -4.45247393487242        0.04967476006339
H           48.32590152488190       -4.49211286654406        0.05018359038779
H           46.40597433020351       -2.59070575710952        0.02846243571429
C           66.21496778388565        0.00473068920331       -0.00293915116645
C           66.85448471803349        1.25963637626697       -0.01820832656742
C           66.23773093871002        2.53863240177868       -0.03438064967487
C           67.22896979396995        3.48213059958630       -0.04515251632316
C           68.47837274720436        2.80374799322441       -0.03613943477100
N           68.20065610140760        1.46420736458547       -0.01994915781994
C           69.74339311267399        3.38136769534314       -0.04262260647017
C           70.97099757389357        2.73773008619411       -0.03471068442678
C           72.23998611746191        3.44352427668150       -0.04347028450394
C           73.20213151125128        2.49781922172297       -0.03250556208907
N           71.18172000688395        1.39296909253979       -0.01848330871936
C           72.51644364377142        1.21852713879383       -0.01677945184558
C           73.18586542521967       -0.02315495105874       -0.00176761739439
C           72.54655111343135       -1.27806964346717        0.01442226934944
C           73.16345369896570       -2.55702898447018        0.03065551029234
C           72.17229721723687       -3.50055624926111        0.04333359218747
C           70.92280647256089       -2.82224198141385        0.03492266635068
N           71.20046016262017       -1.48266725397896        0.01753450860936
C           69.65780358354446       -3.39966589036905        0.04241825658820
C           68.43017599644800       -2.75589275080892        0.03366068623376
C           67.16128039359133       -3.46178953858180        0.04211311921519
C           66.19903679767522       -2.51619011072651        0.02915133866165
C           66.88453618912919       -1.23684361215668        0.01319331931262
N           68.21937687507953       -1.41120662978147        0.01612722837834
H           65.17232139364496        2.70399190726516       -0.03710265336920
H           67.11511616408063        4.55432922521198       -0.05828592915317
H           68.89512416417107        0.72448825493666       -0.01047349520598
H           69.76121971338799        4.46663194945682       -0.05570381880133
H           72.34634848683541        4.51688822429688       -0.05634724438776
H           74.27327204304835        2.62275993058142       -0.03432439854026
H           74.22888934781129       -2.72229220288334        0.03240833006343
H           72.28628162217244       -4.57273413892421        0.05723537324987
H           70.50598163029436       -0.74296749879548        0.00818140556933
H           69.63984590037136       -4.48491711562840        0.05654129653388
H           67.05506496667209       -4.53515568050386        0.05600391689498
H           65.12791388122284       -2.64124583056410        0.03011057747619
C           84.92028263968032        0.01555798784892       -0.00641409033937
C           85.56186252105648        1.26934737416250       -0.02131291912521
C           84.94705670651577        2.54931697025690       -0.03761787724115
C           85.93973388269951        3.49128333977175       -0.04821071977390
C           87.18806748329553        2.81093670864049       -0.03866494909682
N           86.90828834880131        1.47180317788506       -0.02244853534699
C           88.45412480537132        3.38613418381799       -0.04462673538030
C           89.68024969627827        2.73963941712720       -0.03583323588751
C           90.95086239266848        3.44243608112540       -0.04374764085461
C           91.91074723502598        2.49445315806918       -0.03177673955083
N           89.88772186411980        1.39437563982399       -0.01933786783000
C           91.22204411748513        1.21676302318825       -0.01673819292215
C           91.88875625818707       -0.02636200155245       -0.00139208550383
C           91.24717623431619       -1.28011190003487        0.01429271165008
C           91.86198705437781       -2.56006605908722        0.03094239096892
C           90.86930728830180       -3.50201385277055        0.04242510747824
C           89.62097684289203       -2.82165466323703        0.03326313900385
N           89.90075347866320       -1.48253048288080        0.01645976558376
C           88.35492307944946       -3.39683920386989        0.03969770875319
C           87.12880370991230       -2.75035352677667        0.03053304859738
C           85.85819523475806       -3.45316331346520        0.03819011597018
C           84.89830788638147       -2.50520111876771        0.02527798500752
C           85.58701219082877       -1.22752621077207        0.00981959000619
N           86.92133341299510       -1.40509665861001        0.01340588341072
H           83.88189605179322        2.71628579816085       -0.04071878625139
H           85.82753164641814        4.56365386730113       -0.06151352770617
H           87.60174986968562        0.73115899292267       -0.01267290506719
H           88.47427242930462        4.47134505656962       -0.05792017055384
H           91.05974139296887        4.51554375470144       -0.05677732719263
H           92.98217153025571        2.61689275118741       -0.03277230064523
H           92.92715098121184       -2.72703864026200        0.03351340540760
H           90.98151062018640       -4.57437986688920        0.05602858583076
H           89.20729766431877       -0.74187909897370        0.00674721310580
H           88.33477621207250       -4.48204530663392        0.05334027287271
H           85.74931751880180       -4.52626555463395        0.05159659791192
H           83.82688240904069       -2.62764358682847        0.02575909112743
C          103.62318816989053        0.01564734313380       -0.00420328481068
C          104.26262536414505        1.27050228421641       -0.01983867461717
C          103.64590504735173        2.54955033363887       -0.03573561513827
C          104.63720486180091        3.49294579566976       -0.04747640387682
C          105.88660453013341        2.81445649364219       -0.03890957442509
N          105.60874875624583        1.47491818115329       -0.02225851214368
C          107.15170488429304        3.39168904560496       -0.04602520567183
C          108.37924321190930        2.74771732082454       -0.03807125615504
C          109.64825872325054        3.45340089352184       -0.04682656620519
C          110.61035564119561        2.50762763866113       -0.03525723242375
N          108.58984394861528        1.40298820354961       -0.02154229897265
C          109.92465936869698        1.22838706162476       -0.01930092540090
C          110.59402945642240       -0.01331817369067       -0.00371859927164
C          109.95433244136647       -1.26810366940246        0.01199993827089
C          110.57090478588728       -2.54719039861320        0.02809949204647
C          109.57953108673006       -3.49052368871816        0.04017683735338
C          108.33023649882374       -2.81194357724612        0.03160701129001
N          108.60813650166911       -1.47245198822660        0.01457957805705
C          107.06514006214222       -3.38935890790534        0.03893373756763
C          105.83765543288078       -2.74551981375360        0.03075288678261
C          104.56856548156757       -3.45112205079892        0.03954065346826
C          103.60657688508252       -2.50527892628928        0.02759258357106
C          104.29247172455310       -1.22609660247546        0.01143962015017
N          105.62716333520849       -1.40072850784758        0.01379630692276
H          102.58049064234201        2.71494714118526       -0.03788505655665
H          104.52338109904318        4.56514626820072       -0.06087311842895
H          106.30312184397435        0.73511735729426       -0.01297050844018
H          107.16983008078259        4.47694469033240       -0.05948236459725
H          109.75464501888739        4.52675855295172       -0.06001670932810
H          111.68150069051299        2.63249116140932       -0.03682072061333
H          111.63628823833783       -2.71273005011674        0.03015105571531
H          109.69322657367914       -4.56273255332314        0.05382512491994
H          107.91377516306602       -0.73263080098084        0.00527324931700
H          107.04713944423300       -4.47461186662638        0.05268448544292
H          104.46202852543441       -4.52446224505047        0.05301735969821
H          102.53541797933195       -2.63007605602028        0.02905271359791
C          122.32923248572325        0.00329496432720       -0.00365811591429
C          122.97555279864487        1.25458413402773       -0.02095738348581
C          122.36635880809010        2.53722086558402       -0.03937249917747
C          123.36318905003041        3.47471090785661       -0.05255722431665
C          124.60872536983391        2.78897565329441       -0.04242092858720
N          124.32287928808130        1.45110840383128       -0.02319751555043
C          125.87686288501209        3.35928897445901       -0.05066726942113
C          127.10169569905466        2.70984727893299       -0.04100487816303
C          128.37354640578366        3.41046860197454       -0.05157448548554
C          129.33194562076190        2.46096551249644       -0.03710091491536
N          127.30692832493712        1.36451843720395       -0.02065662047773
C          128.64128416070366        1.18454715747496       -0.01768987286106
C          129.30522806729940       -0.05982089304448        0.00263930404863
C          128.65859892717339       -1.31108487265691        0.02246553429906
C          129.26753453003639       -2.59370684889094        0.04315900534966
C          128.27055943890738       -3.53117108011284        0.05619874551919
C          127.02522493891364       -2.84536799199230        0.04396226363599
N          127.31106971384304       -1.50767444268628        0.02394522689161
C          125.75695187118438       -3.41613632611142        0.05046239036651
C          124.53227584288220       -2.76703882752144        0.03893476757313
C          123.26024557910111       -3.46748627017090        0.04735532280460
C          122.30203764224697       -2.51783721608235        0.03245300986059
C          122.99305746603530       -1.24144896753418        0.01482869791437
N          124.32703866141146       -1.42147083587732        0.01907380630968
H          121.30192486289198        2.70886414518238       -0.04211862164766
H          123.25560763943250        4.54753830977413       -0.06797858282649
H          125.01255910258725        0.70694021914364       -0.01226902921581
H          125.90036206377492        4.44443470126888       -0.06668875124295
H          128.48418406619439        4.48336037706371       -0.06787519506201
H          130.40358535490984        2.58157635028230       -0.03881181071747
H          130.33191559312073       -2.76551920388031        0.04714804988548
H          128.37794416020222       -4.60399626211579        0.07274634125507
H          126.62138013108037       -0.76351484707394        0.01144211886201
H          125.73377332286637       -4.50128436203434        0.06647507574784
H          123.14935627644650       -4.54036784309792        0.06265706661740
H          121.23038073455572       -2.63834142200226        0.03280582762908
