122
 energy: -221.647979988461 gnorm: 0.000743961191 xtb: 6.5.1 (b24c23e)
Cu          14.86590785094083        0.06175939450441        0.02326144281047
C           11.44974290503890        0.09020368149964        0.04561938978433
C           12.08656364657634        0.96780777313284        0.91004711259955
C           11.41807968329255        1.87306589688186        1.80056807883436
C           12.38324666828661        2.55179840188826        2.47098857073345
C           13.64555477096906        2.06526712880776        1.99283503657183
N           13.44025386820710        1.10737984465073        1.04961202325353
C           14.89805089334818        2.51925042809482        2.43611505558196
C           14.91219169855065        3.52657530585823        3.42688763172180
C           14.93114805429821        4.38834256250610        4.28097740926953
C           14.94720485944909        5.39734050052430        5.27102517017051
C           16.15094917881629        5.94085415041397        5.73489390001008
C           16.11167684375669        6.92717415354026        6.70420541378952
N           14.97835149091240        7.39098228970989        7.22495417459920
C           13.82984759043611        6.87885166405528        6.78987145482374
C           13.75971340982566        5.89067314588442        5.82423351041946
C           16.13693401890122        2.05222065304771        1.97061555649977
C           17.40797703000976        2.52703282408484        2.42975111101745
C           18.35781788113025        1.83562673586950        1.74812473169212
N           16.32340408766552        1.08697480785348        1.02380634010673
C           17.66957940034632        0.93654159453255        0.87134136982800
C           18.30399343926480        0.03701578864275       -0.00336416557222
C           17.64396623675107       -0.85424303475912       -0.86729026606431
C           18.30560379204855       -1.76435682555292       -1.75310435943959
C           17.33546113943259       -2.44425482900431       -2.41758844233777
C           16.07858584003191       -1.95099788503040       -1.93916686665496
N           16.29356499159035       -0.98630883828457       -0.99789998512372
C           14.82602203749606       -2.40158864075527       -2.38351211745465
C           14.80921141878290       -3.41451405135718       -3.36856404984476
C           14.78843185838015       -4.28636719195406       -4.21230918669746
C           14.76779507573526       -5.30503853503381       -5.19233683763279
C           15.95283419582019       -5.87563268108139       -5.67157348397591
C           15.87796814298992       -6.87347567030893       -6.62685965915356
N           14.72704841667937       -7.32374471564022       -7.12020306773269
C           13.59613364593376       -6.78550697504517       -6.67079556525188
C           13.56160242061852       -5.78394358452210       -5.71706209835437
C           13.58712960631748       -1.92631586211394       -1.92419581741655
C           12.31071179466614       -2.39360346250687       -2.38380715614298
C           11.36581224880652       -1.69584963414440       -1.70414162407367
C           12.06078961789719       -0.79904233850510       -0.82546958837876
N           13.41010038649429       -0.96169776479467       -0.98207024934959
H           10.36458239156544        0.09955333167329        0.05220930183375
H           10.34730267841504        1.96649037777199        1.89067578493916
H           12.26472487647258        3.31549328554645        3.22324585762415
H           17.09686909903897        5.59241113415450        5.33813338023849
H           17.03051921242495        7.36675606363462        7.08157518231336
H           12.92412101079978        7.27919935322535        7.23631633930397
H           12.80230975666393        5.50179109612331        5.49907150807544
H           17.54558155045448        3.29135337700450        3.17784743862017
H           19.43001887116713        1.91921216470213        1.82552042898242
H           19.37519909594488       -1.86280855833340       -1.84756780454656
H           17.45037899221137       -3.21187153369879       -3.16617624889230
H           16.91200850843174       -5.53910683208356       -5.29697354587866
H           16.78164707762251       -7.33421975901140       -7.01545133064153
H           12.67525948963938       -7.17563550013510       -7.09474543237205
H           12.61742037148369       -5.37421790023016       -5.37904275570508
H           12.16951085569871       -3.15837675956873       -3.13101969832903
H           10.29255629617987       -1.77159486770542       -1.78027827010618
Cu          30.92018712062604       -0.05176107974229       -0.04247568429997
C           34.33632859965486       -0.08604004924551       -0.05352118483319
C           33.69968799476380       -1.27826310238556       -0.36382273727447
C           34.36824366977916       -2.50702480516982       -0.68415914068360
C           33.40311926150323       -3.43073283754193       -0.92293785255683
C           32.14076738568907       -2.77075634560511       -0.75065678324456
N           32.34603842113614       -1.46973809442165       -0.41213559536006
C           30.88816505404278       -3.38399569333926       -0.91274558516637
C           30.87318081544283       -4.75140629172093       -1.26843645905847
C           30.85130078791660       -5.92574560673780       -1.57323254458141
C           30.83604074003934       -7.29397845586808       -1.92855499161952
C           29.63307882255292       -7.97153674380155       -2.15945997916282
C           29.67347721991642       -9.31066076435991       -2.50450306242911
N           30.80716844799048       -9.99614419215759       -2.62920534745618
C           31.95499538563131       -9.35926749615815       -2.41115751625537
C           32.02399411716530       -8.02232711130537       -2.06235522030678
C           29.64935768440511       -2.74476401236330       -0.75009319709220
C           28.37834128344461       -3.38294289540791       -0.92068555592903
C           27.42842167023634       -2.44298648596177       -0.67781852354791
N           29.46280073164942       -1.43656163406650       -0.40851993710888
C           28.11654418318918       -1.22864492388898       -0.35750449838394
C           27.48209699414673       -0.01616716594945       -0.03500546322407
C           28.14208412354216        1.18283210980407        0.28624395494838
C           27.48034997866380        2.40994900901416        0.61342510389625
C           28.45042847638442        3.32930917521409        0.85565064006510
C           29.70734063947150        2.66579793254668        0.67713837099720
N           29.49241995134883        1.36292999376352        0.33198997936847
C           30.95992335012708        3.27834475249264        0.83571025149233
C           30.97664197619299        4.64384354405106        1.19868940363750
C           30.99776110205002        5.81532458493353        1.51435098726840
C           31.01818591702464        7.17890784453686        1.88689009899018
C           29.83304879920556        7.88168568787289        2.13407133341284
C           29.90746538459911        9.21354628591866        2.50075556432288
N           31.05802749766275        9.86921527144340        2.63127849083041
C           32.18902679636988        9.20868415074447        2.39635257431707
C           32.22400027076493        7.87634510715769        2.02542236914158
C           32.19877093027615        2.63992506982712        0.66431552427752
C           33.47516762204984        3.27388592293598        0.83074859658808
C           34.42007996639146        2.33212162320075        0.58202810394268
C           33.72512463837140        1.11792597070434        0.26249138231902
N           32.37580321804183        1.33616029080803        0.32030102010645
H           35.42149226454571       -0.09644697441383       -0.05747143438739
H           35.43903408994905       -2.63220188654195       -0.71823203238282
H           33.52174175071198       -4.46821704343708       -1.19262751672124
H           28.68681363910303       -7.45194099646785       -2.06890638183423
H           28.75523202569409       -9.86066346624165       -2.68958928149131
H           32.86106136835526       -9.94826598656244       -2.52085677069683
H           32.98080833003080       -7.54308712158323       -1.89379110880056
H           28.24087192353508       -4.41767256339745       -1.19126953530226
H           26.35622842250217       -2.55248635484148       -0.70947941714659
H           26.41075210036242        2.54128092163294        0.65023839830282
H           28.33539713786344        4.36556192701454        1.13089625107695
H           28.87414399890513        7.38650914215528        2.03974773701653
H           29.00370272900608        9.78233716084450        2.69978078779149
H           33.10960353054148        9.77368413155027        2.51150426077121
H           33.16822482707103        7.37713536431870        1.84420756751674
H           33.61630329469916        4.30767543497163        1.10369421844073
H           35.49333578740771        2.43594599494080        0.60947739657853
C           23.50697215710514        0.01255442844399       -0.02695743666030
C           22.27913317452843        0.01544319185402       -0.02238735005108
C           20.93394468019638        0.02138582123558       -0.01510836441502
C           19.71048741051775        0.02800263131841       -0.01308983650850
C           24.85216449997935        0.00406342746529       -0.02872586575344
C           26.07560655800254       -0.00255340116151       -0.03175720721607
