268
 energy: -441.601212124818 gnorm: 0.000491734823 xtb: 6.5.1 (b24c23e)
Fe          57.98721010936978        0.08201718878402       -0.01854746079470
C           54.60371932947858        0.15431131842858       -0.06825779280816
C           55.25287537858306        0.89618416779171        0.89812009304068
C           54.58396279347102        1.65924350284088        1.90752625497127
C           55.54202492077446        2.35520850427017        2.56608168173299
C           56.79308355737285        2.02831537232328        1.94542342396407
N           56.60769152158920        1.09266190154950        0.96545634073570
C           58.00442229617375        2.64858741019880        2.24473440688081
C           58.01066864649182        3.76216352195330        3.21693007678826
C           57.21691217250859        4.89482133336542        3.01063905730864
C           57.22481800594069        5.93842646381185        3.91582061434281
C           58.01803649883175        5.87504635889391        5.06849222706397
N           58.02712487144766        6.96631317417755        5.92354823112946
C           58.42037251943852        6.79254256353914        7.31520747505176
C           58.81739557293016        4.74723608732362        5.27776700163824
C           58.81130477811842        3.71095691611747        4.36009651910577
C           59.20368268727868        2.26742361219142        1.65575661781842
C           60.45345230132205        2.93136391736001        1.87614240100399
C           61.40156258358836        2.19794716887801        1.24386187888062
N           59.38656301764768        1.17231769859075        0.84507890642048
C           60.73108243392628        1.09675430251130        0.62914550834904
C           61.39684981494773        0.03417846512526        0.00030501347169
C           60.70823060111888       -1.01907044899344       -0.62016899721756
C           61.35262864394296       -2.15146199724897       -1.20488128922687
C           60.39024213983542       -2.86986147063857       -1.83312686034296
C           59.15894555692877       -2.16336087195992       -1.64348985340037
N           59.36451911179790       -1.06080898440197       -0.84815559300570
C           57.95950027164226       -2.50906033204393       -2.25360699395016
C           57.94643198011056       -3.63473050787386       -3.21142470695604
C           58.77763691555648       -3.62922580887311       -4.33385133377171
C           58.77014426553995       -4.67872181783998       -5.23614214254636
C           57.93582131585527       -5.78048715114141       -5.02465136174308
N           57.85732184942616       -6.83849317257789       -5.91711299636027
C           58.98877739052863       -7.13725408726867       -6.78445352856630
C           57.09664990944327       -5.78918880858575       -3.90330163196325
C           57.10019469114648       -4.73061846798552       -3.01554250718841
C           56.76752903485522       -1.83495559967463       -1.99558459484063
C           55.52287258482858       -2.11253762477541       -2.65209640109784
C           54.57799777311409       -1.36380807062508       -2.03372505505446
C           55.24891245597868       -0.62077511672542       -1.01067246502561
N           56.59479054591181       -0.88023987537194       -1.03206067945284
H           53.51981179605203        0.17933439760216       -0.08585049623067
H           53.51871072793668        1.65119543900486        2.07657499521639
H           55.42307890456892        3.02761762948998        3.40032450405170
H           56.60613471722779        4.96358116604885        2.11710783192818
H           56.61422851298695        6.81718629377913        3.73653724099942
H           57.20518685012110        7.54980936309373        5.82410736360316
H           59.48482554091022        6.56274997630192        7.37722090698604
H           57.84959155046933        5.99114110809054        7.79826025069091
H           58.23545900402193        7.73153617557104        7.83700612387524
H           59.44690143122563        4.67231938103407        6.15598649168810
H           59.42162895090370        2.83335366237430        4.54378453624276
H           60.58077421110330        3.84387490492393        2.43538756694736
H           62.46254686080982        2.37654170053298        1.19544337566135
H           62.40641445113194       -2.36292811980173       -1.13557097282120
H           60.49653449446141       -3.79743196917835       -2.37172228185612
H           59.42183902510921       -2.77567229445189       -4.51505485439951
H           59.41371264424403       -4.63326988723492       -6.10615403216000
H           57.45636368972508       -7.67172517331254       -5.50390234894589
H           59.10761172624370       -6.34937271310293       -7.52933980806131
H           58.78022095689954       -8.07513882019422       -7.29921027774333
H           59.91896631385634       -7.23640413765280       -6.21325293410818
H           56.44283082069648       -6.63817426507147       -3.73325289786939
H           56.45932841349182       -4.76100578380294       -2.14117256576663
H           55.39978082253271       -2.78944488953758       -3.48201899021338
H           53.52028098190601       -1.30838468887388       -2.23750546323043
Fe          90.52264648472831        0.02894307021348       -0.07415433882567
C           93.90607441346548        0.01076170824710       -0.07888910561012
C           93.25150487378825       -1.08493685650391       -0.60496617576156
C           93.91229217875467       -2.24798568459725       -1.11437310774782
C           92.95494029426334       -3.02040499153672       -1.68276088406721
C           91.71273909339870       -2.31931877456767       -1.53273781082014
N           91.90039868083291       -1.16678675800485       -0.82118368373635
C           90.50956403289152       -2.71537852215922       -2.11363081401487
C           90.50290552846781       -3.89936942195676       -2.99826109409224
C           91.33353878784315       -3.95835681373735       -4.12164552453937
C           91.32678845705314       -5.06490485599073       -4.94878348845606
C           90.49775296678744       -6.15841419068691       -4.66827317912655
N           90.49381927063737       -7.22714477280754       -5.55173868383501
C           90.06030444581222       -8.54079953373563       -5.09520455710423
C           89.66082896031325       -6.10290989261016       -3.54974834664176
C           89.66608711279463       -4.98564849403615       -2.73270098658067
C           89.31722637713368       -2.03667384372405       -1.89394531097934
C           88.07724413515960       -2.36054307682736       -2.53298660993768
C           87.12679140076729       -1.58720832129339       -1.95361790092759
N           89.12829528038327       -1.02607380636454       -0.98125359825607
C           87.78576736590516       -0.78633250659463       -0.97199480229319
C           87.11296714980023        0.03528784867277       -0.05461311095784
C           87.79823557105443        0.86139766381386        0.84901809900708
C           87.15202957310323        1.67589399083603        1.82796260601699
C           88.11189722550149        2.45041965291153        2.39027413988435
C           89.34464287124686        2.11307742116519        1.74411555981486
N           89.14195459015521        1.09568923595107        0.84238109650638
C           90.54441106118898        2.78311790944924        1.95186963170749
C           90.55197795514459        3.97004707901600        2.83240263469712
C           89.72123875922765        5.06141180134194        2.56834070144320
C           89.72169974353278        6.17704641964012        3.38746262326225
C           90.54793633127107        6.22004919673085        4.51450753026511
N           90.61874045210550        7.32782725198024        5.34509542412136
C           89.48468324939925        8.23777150089462        5.43315551016121
C           91.38631144287332        5.13039955072230        4.78175754179505
C           91.38988198097715        4.02689536318373        3.95052429223694
C           91.74102690029798        2.37203197543176        1.36820756052261
C           92.99104598373744        3.06099710599293        1.51036121025322
C           93.93888212035668        2.27397420079338        0.94626633637128
C           93.26447494754645        1.11489553141276        0.44563542609867
N           91.91488043619380        1.21264950098817        0.66399535641354
H           94.99038041871231        0.00475178906748       -0.07971279108686
H           94.97230809182072       -2.43283432895824       -1.03951252376712
H           93.06886626324879       -3.98094534489826       -2.15884707428827
H           91.97312352779153       -3.11503006895428       -4.35806968580373
H           91.96678870677077       -5.09198264357394       -5.82447989572593
H           91.33432173266741       -7.27256184703652       -6.11526992581511
H           88.98816737975345       -8.53224185151169       -4.89456022697588
H           90.59437576832140       -8.84887680504171       -4.18899237518365
H           90.26015191004410       -9.25697417150265       -5.89227360343456
H           89.00301524944813       -6.92970042808828       -3.31120034085979
H           89.02623487442723       -4.96314754261225       -1.85719473633574
H           87.95796274751488       -3.07981368392275       -3.32679771636312
H           86.07211855797320       -1.55223088150636       -2.16794515266030
H           86.09842701598892        1.65148449029866        2.04988862405797
H           88.00320431716136        3.17925018468745        3.17692933974166
H           89.08288666550233        5.04449527235964        1.69161640636381
H           89.07888879085908        7.01376089023807        3.14271141998740
H           91.01378504569740        7.11336635851079        6.25267682623378
H           89.37489258725951        8.79051282550878        4.49919384351271
H           89.68335293470288        8.94688901658360        6.23676629614517
H           88.55306230363047        7.70084774018500        5.64568669111677
H           92.03352290156261        5.15656818166787        5.65217551661716
H           92.02932117239644        3.18221924042080        4.18243956170244
H           93.11595482787743        4.02409061526080        1.97832397277984
H           95.00064827799370        2.44671037705201        0.86751585130490
C           62.80013303867951        0.02442027411060       -0.00806131796538
C           64.02069323995229        0.02127337923891       -0.02255983265964
C           73.63944177834270       -0.02634173622446        0.05133594311960
C           74.85991687261907       -0.03156663736783        0.05694425251292
C           84.48871086817940        0.02476646300263       -0.03028552921333
C           85.70944645816905        0.03153755872307       -0.04241968110511
Fe          68.83432824226088        0.02425127885306       -0.02641935522132
C           65.42326794644288        0.02079770644260       -0.02995398005126
C           66.10249135107500       -1.10620954286002       -0.51790289719783
C           65.44523130511989       -2.26926067317691       -1.01998401631164
C           66.39888100618884       -3.03765152572600       -1.60231675823432
C           67.64197315328332       -2.34937235583553       -1.43390982161213
N           67.44744952809008       -1.18524030852202       -0.73214578046183
C           68.83604094156865       -2.72783072544594       -2.04234346613002
C           68.83332182607693       -3.90383691026721       -2.94152865301741
C           68.53600028150764       -5.18000796752061       -2.45619023857180
C           68.53672041231512       -6.27362957656016       -3.30113037486140
C           68.82191115532520       -6.12076860240986       -4.66385782039730
N           68.85509563044432       -7.25347043240996       -5.46232918726965
C           68.67812513189440       -7.12919121671487       -6.90278809929825
C           69.12670166172829       -4.84670469785701       -5.15220132540418
C           69.13313233561642       -3.75816534431622       -4.29709233310976
C           70.03311511031285       -2.04975418934596       -1.84300957280417
C           71.28545891715396       -2.44172554528231       -2.41648378194952
C           72.24124997725109       -1.68530664667423       -1.82263939315940
N           70.22550162791163       -1.03878007002127       -0.93205618743903
C           71.57185143155039       -0.84137412404813       -0.88480663841978
C           72.24049552080074       -0.00932342648748        0.02632784706931
C           71.55957989366877        0.84684035401738        0.90514460442431
C           72.20657467363630        1.65433895781688        1.88899951103967
C           71.24825459581903        2.44663174448298        2.43258046140937
C           70.02222934408587        2.12508895935982        1.76755906609243
N           70.22131319593949        1.09811629341118        0.87776783252076
C           68.82890555363629        2.82269201381214        1.92868230773599
C           68.81942767411897        4.02668803305383        2.78213218271975
C           67.92590303088308        4.13670284301744        3.85096972294225
C           67.91862630263509        5.25362266291801        4.66733166478574
C           68.80975066247909        6.30459932965740        4.42758424506081
N           68.80872301957162        7.46856583342959        5.17727691327570
C           68.27959178591739        7.46109244073518        6.53395708815981
C           69.69589796588090        6.20759401812923        3.34659144416741
C           69.70505199842606        5.08325755491237        2.54459385264020
C           67.64021099517947        2.42276790193436        1.32239692103368
C           66.41352628887276        3.15614243551095        1.38707018976598
C           65.45693227295041        2.36272183761051        0.84244692353274
C           66.10309064371869        1.15633525971244        0.43865395452542
N           67.44391976184397        1.22742131875622        0.67619222853083
H           64.38717513013590       -2.45718687253941       -0.94866544265426
H           66.27227367596809       -3.97668804364142       -2.11567793087532
H           68.32510450780018       -5.31591640380368       -1.40120652435282
H           68.31638978284002       -7.26139115436655       -2.91015932638208
H           68.32746990778453       -8.02509113244447       -5.07243452420636
H           67.76981576413412       -6.56787435240452       -7.15042928854018
H           69.54102319551694       -6.62831637679669       -7.34363698186296
H           68.60652076341057       -8.13321828324764       -7.32105303526903
H           69.36004038412068       -4.69780053710372       -6.19926221426440
H           69.35330755290754       -2.77190700923375       -4.69088203589901
H           71.41402406834766       -3.21242429394840       -3.15872045106659
H           73.30570344673339       -1.69597483020110       -1.99085443310498
H           73.25632322012817        1.60901617769064        2.12981444658608
H           71.35514270476482        3.17633353996088        3.21865494715229
H           67.24443296098123        3.31952138390793        4.06104850986064
H           67.21765770276455        5.30194388194181        5.49155936298748
H           69.67143309492995        7.99264580489173        5.09754933716512
H           68.73982971450457        6.67337230162128        7.14128360097155
H           68.49033264251420        8.43164333353631        6.98302741335277
H           67.19908667067897        7.31321441361948        6.51340260113912
H           70.37828517659113        7.02584876804191        3.14204560795219
H           70.38849664720651        5.02869490476633        1.70437217785416
H           66.30526072885493        4.15117063919290        1.78681335078574
H           64.40852603290035        2.57246064062677        0.71216084981297
Fe          79.66964036469815        0.00667598921519        0.00762048637005
C           76.25930885528656       -0.02979859914388        0.05769551924600
C           76.93586323273392       -1.09971467148559       -0.54751947512553
C           76.27222003997980       -2.22066390199119       -1.13317672452114
C           77.22539455923682       -2.95148994420655       -1.76212996656848
C           78.47105246743860       -2.27988566562236       -1.54422057186777
N           78.27862758507717       -1.16403318477217       -0.76548086266924
C           79.66302282077102       -2.61990012861070       -2.17343552195149
C           79.66563163840735       -3.75817734375081       -3.12003490906955
C           79.37940415453544       -5.05328396453608       -2.68009285437242
C           79.39861457424662       -6.11803851015902       -3.56083644458828
C           79.69764476329851       -5.91691947759348       -4.91413772370032
N           79.65434579797696       -7.00674181918829       -5.77022616883432
C           80.41241296776033       -6.97661047826302       -7.01401162166658
C           79.96400310187674       -4.61976892230200       -5.36251415377315
C           79.95603751942343       -3.56080495738652       -4.47105990716833
C           80.85752836034234       -1.94029676468262       -1.95166763560864
C           82.10046221164427       -2.28649849979841       -2.57055947165567
C           83.05808707548719       -1.54294621820467       -1.96405608327458
N           81.05624218931000       -0.97312263244249       -0.99687836477324
C           82.40247605632366       -0.75530963679844       -0.97106313097763
C           83.08564396574539        0.02152863421859       -0.02232813759196
C           82.40993888489760        0.79829606133101        0.93153992679188
C           83.06597614439421        1.55684000325085        1.94648613232227
C           82.11143288285756        2.30294516724775        2.55678967948150
C           80.87487500016103        1.99959833120360        1.90454163159062
N           81.06588935879914        1.03119188275219        0.95096806522700
C           79.67585534214186        2.66331175654118        2.15393143985064
C           79.69085758760018        3.82496291563491        3.06578327993041
C           78.86948756774503        3.86572435176567        4.19483453481918
C           78.88825173900007        4.94958784051574        5.05518247518513
C           79.73232636370248        6.03480246746477        4.79964098102521
N           79.75057886009638        7.16936816352268        5.59458818629579
C           79.33162798693419        7.08665757557145        6.98705225531221
C           80.54627016788504        6.00621972669526        3.65982749944758
C           80.53131989501645        4.91448415042031        2.81411723397645
C           78.46998001482903        2.27620196229422        1.57999379597637
C           77.22762687888843        2.96322776729696        1.76410397836895
C           76.26855359361984        2.19522221307442        1.18908088645582
C           76.93108332546899        1.05301304117102        0.64510416931042
N           78.27608034838994        1.13443338050776        0.84077265089139
H           75.21270505449749       -2.40900215682036       -1.07393160223211
H           77.09874126565849       -3.85295790755813       -2.33897656138478
H           79.16659799977670       -5.22688865335941       -1.63102264055423
H           79.18503009600184       -7.12039551543731       -3.20493600625722
H           79.74644304506226       -7.89042438477111       -5.28377493558975
H           79.97113239222165       -6.25624387965630       -7.70392199384669
H           81.46164598155811       -6.71249445145594       -6.83932223435409
H           80.36026221001065       -7.96783173397885       -7.46433419093440
H           80.17582704994456       -4.42999388445805       -6.40756575409313
H           80.15574381950995       -2.55790867690376       -4.83231475016805
H           82.22412739185266       -3.01946331668698       -3.35076276471674
H           84.11753373143195       -1.53382602492909       -2.15557828694938
H           84.12056983660088        1.51514345835309        2.16079544647304
H           82.22719375813600        2.98859825405997        3.38030160402861
H           78.22534923060823        3.02158555700090        4.41579771466613
H           78.24356959061789        4.94537666930397        5.92549482981557
H           80.59126350313139        7.72112322685875        5.47443983252031
H           79.86310685962306        6.29036332295625        7.52056308632182
H           79.54740039584014        8.04419908537959        7.46101131445582
H           78.25805204133702        6.90275689562657        7.04464193987309
H           81.19186036971948        6.85114011791551        3.44441487541084
H           81.16013246292843        4.91030653429893        1.93059108314656
H           77.11116684807116        3.91260352285456        2.26088927096040
H           75.20852113400126        2.38046374547425        1.12616029656310
