318
 energy: -500.573031766397 gnorm: 0.000481523573 xtb: 6.5.1 (b24c23e)
Fe          41.81010477312929       -0.00825009876628        0.00709298299493
C           38.40981452957259        0.09577132755356       -0.06863583603010
C           39.07763832120517        1.18390979594770        0.45395418067427
C           38.41734682932982        2.33702572493079        0.98873398594818
C           39.38950238099215        3.19624655166218        1.37549677000654
C           40.64186745092104        2.56626003892847        1.07318689007312
N           40.43850801288389        1.33332208945785        0.51450370648951
C           41.87432745678353        3.16424482637236        1.29690107169377
C           41.90265831176148        4.53755462931285        1.87418962919514
C           41.83091070235605        5.64907501973717        1.02953491500585
C           41.72200378317353        5.45538747390095       -0.45938844445826
C           41.86095028242745        6.92588486652125        1.57777885725943
C           41.95972881508361        7.11120788892986        2.95297126644107
C           42.01330703499542        8.49895463665306        3.53254043586112
C           42.02985175519406        5.99752699425150        3.78359029522855
C           42.00204368012560        4.71126403405311        3.25756625782043
C           42.07791961367383        3.51019804750144        4.16198797723417
C           43.07968033907322        2.54622903528794        1.00796140371254
C           44.35451870183309        3.15873999433644        1.23533738156831
C           45.29261181063607        2.25151485054414        0.87256109437521
N           43.23945909579204        1.28075206313306        0.49466196148037
C           44.58802051494824        1.09064408841185        0.42404191820523
C           45.23203704181836       -0.07189727485125       -0.01447973700752
C           44.53904912578413       -1.20618265887263       -0.45185968266365
C           45.19268105083904       -2.40627561611851       -0.87314828738419
C           44.21675344824076       -3.27276556822954       -1.23606430225283
C           42.97016439737149       -2.59528818725125       -1.03822952317717
N           43.18441617899547       -1.32772393790200       -0.55092762792949
C           41.74010957051744       -3.15701275115319       -1.33850580136705
C           41.70804568716549       -4.53799276013033       -1.89694102455912
C           41.83894808213358       -4.73624956935608       -3.27504318967045
C           42.01054268422396       -3.55396677808852       -4.19102915538933
C           41.80978772175043       -6.02854504126321       -3.78382979617811
C           41.65328252563818       -7.12584292741889       -2.94151231275164
C           41.61633616858349       -8.51628064007862       -3.51602662422884
C           41.52269253933218       -6.91629505781012       -1.57355991178103
C           41.54842484974853       -5.63153851826794       -1.04188399296320
C           41.40698738009009       -5.41235911594618        0.44079658463607
C           40.53563715983289       -2.49546557193808       -1.14343025520399
C           39.25872561744066       -3.06594183804160       -1.46101866517016
C           38.32444831753278       -2.15253163749494       -1.10660265538606
C           39.03217156973014       -1.02717162086632       -0.57335310417222
N           40.38518435624061       -1.24100225283767       -0.61651019771089
H           37.32599896487509        0.12274933752846       -0.07891526879766
H           37.34702318183151        2.45379788035310        1.05168694840731
H           39.28786789346491        4.17074144219341        1.82551225592748
H           40.80294660724230        4.91971287118217       -0.70489811828051
H           42.56148825528427        4.86278089351619       -0.82747701125036
H           41.71581956283332        6.41393335821066       -0.97736819252179
H           41.80541852922392        7.78896452007054        0.92242306151634
H           41.59566509140258        8.51618537219206        4.53947610528962
H           43.05045189343303        8.83778290784723        3.58927716669156
H           41.46095397921687        9.20219013973906        2.90879343227688
H           42.10603307018444        6.13276362111794        4.85754876537059
H           42.97510005682588        2.92797942653555        3.94288604197466
H           42.10522415047528        3.81194780568686        5.20857607983651
H           41.21370649905533        2.86202528869513        4.00576615864032
H           44.49586555344995        4.15396575190911        1.62476734672084
H           46.36641785283451        2.34337933119907        0.90161780489375
H           46.26101922198637       -2.55119133319517       -0.88159905572399
H           44.31489615835039       -4.28123122432445       -1.60414966929327
H           41.18747330451411       -2.84925372774365       -4.05979170371297
H           42.03909353989072       -3.86997376909428       -5.23337379688729
H           42.93925357948298       -3.02848641626836       -3.96014765500911
H           41.91145361882678       -6.18413084986268       -4.85293857804656
H           42.45706479617920       -8.67252628797253       -4.19368778524750
H           41.65801854889022       -9.26682030505519       -2.72682625253311
H           40.69516601564717       -8.66317876775200       -4.08391624326322
H           41.40029406440703       -7.76503718578183       -0.90865909502034
H           40.50490108897525       -4.83520223073994        0.65321039939279
H           42.26020081695611       -4.85041564067293        0.82496885694790
H           41.34536381977830       -6.36238453892182        0.97071090716258
H           39.11605120768342       -4.04117993361109       -1.89808416531822
H           37.25084405935402       -2.21695846756042       -1.18666900735243
Fe          97.55099430341478       -0.03089410655296       -0.02347337416179
C          100.94952355559937       -0.06049893765276       -0.13652374175735
C          100.28023477608828       -1.21665332597052       -0.48205641478277
C          100.93647999757994       -2.43579826854030       -0.84912620240111
C           99.96246701395468       -3.31852476047228       -1.17388338483421
C           98.71295724725167       -2.63410281939874       -1.00968295743784
N           98.91986496201406       -1.35372155407951       -0.57180199009785
C           97.48283618002405       -3.19371611656023       -1.32640389343800
C           97.45132771728690       -4.58390056682633       -1.86141072106440
C           97.57261589111758       -4.80613156601399       -3.23600379507437
C           97.73725853608045       -3.63997035202026       -4.17364297917100
C           97.53968226277023       -6.10782455732391       -3.72238450849908
C           97.38976393974406       -7.18934234445326       -2.86051379773452
C           97.33431967372528       -8.59295753512751       -3.40034773301505
C           97.27030584655377       -6.95579388471486       -1.49426959067279
C           97.29961977915222       -5.66275409076467       -0.98555234132352
C           97.17000904700514       -5.41659670441406        0.49393323138836
C           96.28253964902049       -2.51980084373841       -1.17107756686817
C           95.01044520117006       -3.07973554798136       -1.51769408445590
C           94.07381172317062       -2.16701987095132       -1.16441102121431
N           96.12378037563805       -1.26424388082421       -0.63391923896316
C           94.77619842027289       -1.05614885943420       -0.60061981702879
C           94.13197328258063        0.04961797758341       -0.03444485525690
C           94.82638742786375        1.12511165355687        0.53084444835776
C           94.17723967004267        2.24650048141891        1.13584295443027
C           95.15414992857629        3.11547032191169        1.49092060660247
C           96.39701467164832        2.52057928951215        1.09925615377568
N           96.18013680250134        1.29029357883298        0.52581828869691
C           97.62370662284970        3.15011857476527        1.23472518130622
C           97.65609715454181        4.52715558989901        1.80261788842985
C           97.48313646160770        5.63056320618443        0.96100960128735
C           97.26512812254595        5.42338072158058       -0.51405695781894
C           97.51384127494192        6.91057324238043        1.49982690351520
C           97.71253131451343        7.10830556393556        2.86341947331939
C           97.75175589559626        8.50452506292438        3.42357491017519
C           97.88389893190283        6.00387539599329        3.69000723285674
C           97.85787605534830        4.71330067797929        3.17259314735505
C           98.04363619368316        3.52171601904813        4.07367389625893
C           98.82389025490909        2.55936711711594        0.86442533330787
C          100.09856930939559        3.20382726034518        0.99386060891489
C          101.03243377917272        2.30276135978885        0.60781055045207
C          100.32695369759664        1.11052233505953        0.24348961016118
N           98.97460544334560        1.28854724159909        0.37801473128743
H          102.03339225166576       -0.07546157605209       -0.15789518835710
H          102.00568597472872       -2.57720537612704       -0.85212147157307
H          100.06139823218430       -4.34099091143313       -1.50144954992458
H           98.65087426083717       -3.09091262652947       -3.93770491976438
H           96.89790392639331       -2.94965321703458       -4.07154563046245
H           97.78983990214995       -3.97670431791225       -5.20852736244366
H           97.63369994986377       -6.28071052903111       -4.78950482126762
H           97.73964269000790       -9.30283834948884       -2.67885842991999
H           96.29781216674999       -8.87154506332483       -3.60461507818760
H           97.89696971249890       -8.67447864252870       -4.33059528282604
H           97.15380958973877       -7.79367430635873       -0.81465880310322
H           96.28173124596984       -4.81668583659290        0.70110401828882
H           97.09142427220964       -6.35634985200962        1.03967966880007
H           98.03714957928422       -4.86697143683717        0.86470103284415
H           94.86945605222347       -4.04913837391642       -1.96773318724525
H           93.00179784103329       -2.22862804598100       -1.26125833921153
H           93.11075622043758        2.34213740576640        1.26196018565692
H           95.05881050674195        4.07500587461362        1.97297331428620
H           98.08419950740382        4.84198265600397       -0.94115307872213
H           97.20281716554457        6.37764962479477       -1.03621738116446
H           96.33933537276073        4.87065377524493       -0.68532646443323
H           97.37990232967007        7.76780776727383        0.84810076874699
H           96.90468398393909        9.08737383039685        3.05876028821249
H           97.72438162755888        8.48981845760195        4.51303799526029
H           98.66762611531978        9.00907971513337        3.10835236142411
H           98.03895346638012        6.14755843197681        4.75431443475519
H           98.94254512679377        2.97044224644757        3.79076634214041
H           97.19418422126674        2.84209064813823        3.98476381040838
H           98.13773202591227        3.83117507188737        5.11412042990169
H          100.24041461382309        4.21460572442728        1.34130329529368
H          102.10473501211366        2.41293300539142        0.57272093188084
C           46.63365384876062       -0.10082511698835       -0.01205573966883
C           47.85925827688899       -0.11826436266099       -0.01013949777460
C           49.19983515209816       -0.13221209201230       -0.00956711723650
C           50.43183789159202       -0.13775352329583       -0.01060985029145
C           51.76757393355790       -0.14004292521061       -0.01001863288646
C           52.99968318840902       -0.13444836499189       -0.01095512022847
C           54.33992978738841       -0.12549507678206       -0.01384785268014
C           55.56591332349772       -0.11446711004055       -0.01590260121046
C           65.21180356878175        0.03398897802871       -0.05352585298453
C           66.43893647524524        0.04639645198933       -0.05568394132893
C           67.77705435938628        0.05752494934556       -0.05582474845128
C           69.01052480890382        0.06097336715250       -0.05563871316703
C           70.34396596729748        0.06058725168310       -0.05184501602391
C           71.57743060797952        0.05651900359844       -0.04789727670994
C           72.91559939739960        0.04926417048965       -0.04488475402543
C           74.14272076587470        0.03871940975741       -0.04008360367538
C           83.79785740336635        0.09012828547636       -0.03646091924852
C           85.02358013188437        0.10621954663837       -0.03567033221288
C           86.36409915534522        0.11753767334399       -0.03177427894498
C           87.59605829833396        0.12108968810155       -0.02711636399545
C           88.93210567022805        0.11898991989114       -0.02428530141119
C           90.16391401429139        0.11174285427952       -0.02518322396088
C           91.50474693645954        0.09490968900828       -0.02440160721230
C           92.73012483943741        0.07594422539175       -0.02695867053223
Fe          60.38986239867828       -0.05049453040135       -0.03286256058810
C           56.96651213700018       -0.09837344141697       -0.01990242773198
C           57.63800052565077        0.20741318255996        1.17050444514021
C           56.96567237219929        0.50662414306886        2.39608812248645
C           57.92590716491095        0.62931641747700        3.34483003533229
C           59.17996607776098        0.40651709080856        2.69089506229228
N           58.98907085160403        0.17568425797175        1.35102664110322
C           60.39611100655031        0.36286977566049        3.35745350618635
C           60.39600938152100        0.52812460516968        4.83792287409373
C           60.56946031912079        1.79610313243183        5.39976465736084
C           60.75808458514149        2.99394841801652        4.50774257819204
C           60.56434653640916        1.93570614056238        6.78272821471247
C           60.38943634166587        0.83279695434144        7.61210656482150
C           60.40552783658718        0.99263514054414        9.10825147000695
C           60.21945095871919       -0.42439934122330        7.04103318539943
C           60.21976611272694       -0.58805849345828        5.66098603366760
C           60.03124986128108       -1.95057403495428        5.04931898527147
C           61.61017206059672        0.17208320768091        2.71618204802817
C           62.86837942842284        0.12667254297310        3.39836718554455
C           63.82541142875128        0.03529619288068        2.44301585426568
N           61.79695503980725        0.08108835637594        1.35790894247735
C           63.14679379295458        0.02231530618086        1.18473168552319
C           63.81362014558519        0.01323074545171       -0.04824158903114
C           63.13666029593577       -0.02153625984931       -1.27515737944757
C           63.80416316434718       -0.01440119893061       -2.53941912857561
C           62.84308760687495       -0.14854342110910       -3.48566814039142
C           61.59363343177255       -0.23919058298373       -2.79200149668702
N           61.78850549801992       -0.13252074376535       -1.43604434532905
C           60.38203171371659       -0.47963636302566       -3.42128151459840
C           60.37559015456056       -0.65987526375049       -4.89997287529981
C           60.13288465985310        0.43620735323967       -5.73294679387584
C           59.87978743682297        1.79408484262075       -5.13437525414217
C           60.12653266639583        0.25714176360468       -7.11120752397090
C           60.35542396990314       -0.99576885539257       -7.67058860216509
C           60.36401486858669       -1.17325699181408       -9.16480182301086
C           60.59628481178977       -2.07878598262051       -6.83131850454470
C           60.60883552197577       -1.92350284840190       -5.45021232194064
C           60.86863779102147       -3.10000651087029       -4.54771407453089
C           59.17346493253851       -0.55842092242256       -2.74426530826117
C           57.92167152302140       -0.82367538626855       -3.38667158865886
C           56.96502479202763       -0.71824522494260       -2.43224016549736
C           57.63747081867495       -0.39026948058541       -1.21413669675814
N           58.98569216119103       -0.32186651126276       -1.40490987838869
H           55.89676844244295        0.59854780452418        2.50234532936242
H           57.81102755285858        0.84573693851744        4.39459441351605
H           61.66788494421844        2.88387155660255        3.91440068214431
H           60.83345594345543        3.90854245331714        5.09503540920742
H           59.91872297247745        3.08877265143783        3.81647149818787
H           60.69680576363487        2.92020742602740        7.21930328158946
H           61.42053177154662        0.84925394620691        9.48617242396236
H           59.75981192297497        0.25430747651102        9.58436874739239
H           60.07392346471425        1.99034446808729        9.39652247046721
H           60.08248664772513       -1.29031708486554        7.68043099634400
H           59.12461662781080       -1.96993745336626        4.44141905854960
H           60.87349798011893       -2.19511267791613        4.39954135726030
H           59.95012533711360       -2.71568483133419        5.82074809986030
H           62.98777694921904        0.16690239287473        4.46897318294907
H           64.89564538133668       -0.01461140671850        2.56312290498827
H           64.87053880676785        0.07684809640042       -2.66923610583897
H           62.95445161758785       -0.18926587296380       -4.55712776786187
H           58.97031347659779        1.77729752684988       -4.53058473567147
H           59.76685704276605        2.54769819845836       -5.91309437856944
H           60.70686040641263        2.08278309696465       -4.48331223589292
H           59.93800266983226        1.10763410164703       -7.75813595523131
H           60.03786190481308       -2.17688831761199       -9.43866896826200
H           61.37597556430796       -1.02828297684342       -9.55020898592658
H           59.71045227768342       -0.44557412907168       -9.64638730016751
H           60.77486157674840       -3.05994541088976       -7.25890546193892
H           60.97147189643712       -4.01819091342894       -5.12516159127296
H           60.04949015738392       -3.22191662478136       -3.83677572945804
H           61.78549652110109       -2.94262652486345       -3.97624737055215
H           57.80554612559542       -1.05410580167381       -4.43330792885245
H           55.89842182572372       -0.84130150178803       -2.52978288456133
Fe          78.96947354165549        0.00766957708626       -0.03113009081263
C           75.54117971726379        0.02465296951270       -0.03610905672503
C           76.21140064923873        0.22752341331907        1.17777029170209
C           75.53282888025988        0.44567810182701        2.41711235599957
C           76.49004691614378        0.53345478483298        3.37226122943746
C           77.74846599764166        0.37199678317583        2.70831851137004
N           77.56145767090614        0.19882683222311        1.35812778622325
C           78.96642274069593        0.36441620975636        3.36982993012728
C           78.96619165731281        0.50859652142849        4.85264529305900
C           79.09465489457426        1.77462674364774        5.43087486644557
C           79.23330508354677        2.99087142481127        4.55469607457242
C           79.09213357200721        1.89530446446827        6.81565616264876
C           78.96366913876410        0.77559223829115        7.63074663686201
C           78.98262365053134        0.91513447489468        9.12889280502427
C           78.83790137078833       -0.47940763976040        7.04342714134114
C           78.83699770745321       -0.62439562034561        5.66131967470841
C           78.69806433216652       -1.98474003643983        5.03181304100095
C           80.18685652430176        0.23801324983046        2.72259055124413
C           81.44553241490141        0.24617157815142        3.40507002081504
C           82.40513727476723        0.17644093937658        2.45075197948928
N           80.37515095206066        0.14385253191253        1.36572520502532
C           81.72743641813550        0.11981784144461        1.19334129624469
C           82.39684880935792        0.06539818726386       -0.03523098316898
C           81.72696121657589       -0.02692761369643       -1.26109799163253
C           82.40382254829213       -0.08849379813457       -2.51872418162630
C           81.44624869956783       -0.22846683025864       -3.46737435408026
C           80.18948607609623       -0.25009413359850       -2.78173358514131
N           80.37627677206825       -0.11017683607036       -1.42874973665390
C           78.97200318347851       -0.42585068475014       -3.42329093295596
C           78.97462960274932       -0.62037541629937       -4.90031828081532
C           78.80285995517502        0.47765502947882       -5.74837449867160
C           78.61549605922778        1.85414512873111       -5.16834603318586
C           78.80609635699552        0.28340964098902       -7.12452538636488
C           78.97580282722838       -0.98625986473559       -7.66727720415096
C           78.99647301536473       -1.17950957919088       -9.15941592842669
C           79.14674931155422       -2.07084573619993       -6.81324494644085
C           79.14796278267890       -1.90071323169612       -5.43376261188634
C           79.33253774176573       -3.07902654222472       -4.51524609804091
C           77.75349266113163       -0.42114408339934       -2.76294089492562
C           76.49557461312209       -0.59157553640497       -3.42572951924192
C           75.53588055188925       -0.45252506011731       -2.47920817767933
C           76.21282179063908       -0.20512950005752       -1.24450847938583
N           77.56372658306800       -0.20222816317447       -1.41965307892018
H           74.46250369609834        0.51474973374320        2.52627708662728
H           76.37110979040752        0.69241321640015        4.43179224742393
H           80.14280298874641        2.92288994466655        3.95461763826009
H           79.27862360866841        3.89938058144336        5.15439273240752
H           78.38669343217119        3.06417462358926        3.86967395621824
H           79.19020946205558        2.87815134029538        7.26485593862101
H           80.00075810666669        0.78051670856828        9.50155866590577
H           78.34896910940019        0.16114719356395        9.59669397974798
H           78.63795244512364        1.90389660163606        9.43216286001154
H           78.73748408312595       -1.35835127010129        7.67174371635940
H           77.78965365072588       -2.03113423353531        4.42805308576949
H           79.54571622164946       -2.18727939559397        4.37464663863401
H           78.65089159035119       -2.76289597225666        5.79294760912971
H           81.56331860010651        0.30208066830042        4.47510822012447
H           83.47639992712912        0.16318879263920        2.57100863404511
H           83.47336681287307       -0.03375251111892       -2.64259700922274
H           81.56416577762985       -0.31034292453748       -4.53573002377900
H           77.69405273174047        1.89602232253609       -4.58422501712897
H           78.56218101584453        2.60447336982481       -5.95654471849862
H           79.44390264507417        2.10211887788346       -4.50240186906770
H           78.67262947184972        1.13525628972253       -7.78327337613261
H           78.65658206059685       -2.18028393566425       -9.42671995467003
H           80.01439889514775       -1.05441198620410       -9.53597405751236
H           78.35984332912834       -0.44598948203190       -9.65477314011287
H           79.27926676846380       -3.06489795508668       -7.22759694562985
H           79.39390114133688       -4.00791674780746       -5.08136170628111
H           78.49878041691781       -3.14895872333494       -3.81435745159210
H           80.24888667535930       -2.96423053776650       -3.93292120392555
H           76.37845070228251       -0.78840754038769       -4.47907667433071
H           74.46510503501554       -0.50968226346137       -2.59077504733142
