128
 energy: -244.083979154184 gnorm: 0.000895223784 xtb: 6.5.1 (b24c23e)
Ni          15.75425557804471        0.01810360192569        0.00988117150053
C           12.36347134249868        0.00657148810522        0.18315876641529
C           13.00889600462725        1.22485297427244        0.20941830892219
C           12.32396567947730        2.47986873509722        0.27759344521299
C           13.27630925544784        3.43763254828051        0.35757739914297
C           14.54283457736337        2.76494601022633        0.35045382081596
N           14.36885759375420        1.40920638172608        0.22704528942684
C           15.76314109407800        3.41236602263899        0.48751342055844
C           15.76861526985118        4.88083874934869        0.69868695332895
C           15.18651999967817        5.43108978777741        1.83673437801966
C           15.19713397467832        6.81058078577237        2.03931879014107
C           14.56708430148681        7.33562303180955        3.27699728215122
O           14.64114986837724        8.66948543301793        3.39220128534829
O           14.03385676365836        6.65009613577321        4.11122170087271
C           15.78800527290543        7.65105453447394        1.09603412964833
C           16.36485574645085        7.10515920375892       -0.03998529464029
C           16.35921911003788        5.73158378702439       -0.23826473656345
C           16.97898416099106        2.74381498355149        0.44636170758872
C           18.24399582218104        3.38353081379242        0.64601036952146
C           19.19378488254440        2.43273129333279        0.47733396720216
N           17.15204415941997        1.40267956560057        0.18949603929184
C           18.50712413355037        1.21562306031959        0.18190047318592
C           19.16719431224230        0.02381742506730       -0.12784905664968
C           18.48823029421802       -1.16763954902659       -0.39565236874358
C           19.15248533028831       -2.37895262387259       -0.75690910438296
C           18.19454416617458       -3.33112627788079       -0.86170373166687
C           16.94814151186797       -2.69890252141973       -0.55197445921354
N           17.13719961130387       -1.35916292495882       -0.29878269552858
C           15.73706846452491       -3.37447120232768       -0.48529958087877
C           15.72916365127438       -4.84296936394781       -0.69659148032741
C           16.41599862333230       -5.68672486557827        0.17886748118253
C           16.40480119825668       -7.06169489359095       -0.01038658832199
C           15.71169552088766       -7.61001450541560       -1.07648644014547
C           15.02330593897632       -6.77675011535273       -1.95950741954077
C           14.29362959829096       -7.40429878572166       -3.08999352312985
O           13.65142293779263       -6.52315193470944       -3.87036832800109
O           14.26560828527146       -8.58898773925220       -3.30549584442970
C           15.03163018360037       -5.39657043791924       -1.76778622813680
C           14.53237993118072       -2.73561659566362       -0.22346410343282
C           13.27626137078901       -3.41692610525276       -0.10356713077788
C           12.33124657077113       -2.46630237346681        0.08216833970715
C           13.01136896757699       -1.20707269840325        0.08606839388114
N           14.36301837414215       -1.38167248825006       -0.07497469993226
H           11.28127770806196        0.00254018227670        0.24050319869634
H           11.25152248894300        2.59149293911746        0.26342803393827
H           13.14717775518611        4.50618235149206        0.41454557337766
H           14.73234856371727        4.79168405014109        2.58578632779442
H           14.21010924637026        8.93156590770422        4.22194742616835
H           15.79341410698077        8.72272313322582        1.25393966305943
H           16.82282226382878        7.75299414783909       -0.77885491571493
H           16.80432537269040        5.31114740973073       -1.13315276366533
H           18.37722251626008        4.42454832894772        0.89091472246498
H           20.26533036954964        2.53046730167439        0.54332243651996
H           20.21559283040410       -2.47248897490946       -0.90927587518645
H           18.31087071374859       -4.36867561801083       -1.12888268122519
H           16.94918886556871       -5.25918862599623        1.02063141761722
H           16.93831488094342       -7.70494255526417        0.68002742514557
H           15.69211159740635       -8.68165272220425       -1.23937042177903
H           13.20343091688706       -7.00996856167604       -4.58117041281831
H           14.50606421500068       -4.75052146589944       -2.46095877110114
H           13.14847794949712       -4.48607555669076       -0.15226944069279
H           11.26693299650340       -2.58610462522523        0.20745953767001
Ni          29.18481110155550       -0.02009986037006        0.00440151944909
C           32.57586177031234       -0.06360126929765        0.16756580705936
C           31.93078058338334       -1.22443512242261       -0.20365486998748
C           32.61607330769083       -2.43294575160260       -0.54820535222587
C           31.66401676321116       -3.36520719379585       -0.78311137949999
C           30.39734487846639       -2.72749143689407       -0.56990169355364
N           30.57090331394818       -1.40533242437623       -0.24549397246708
C           29.17719769589096       -3.38470674802704       -0.65055026350378
C           29.17212287318667       -4.84184486487700       -0.92942080314675
C           29.75538822635527       -5.73289477147968       -0.03353316879081
C           29.74527311057626       -7.10303605618598       -0.29199700673130
C           30.37669719839280       -8.00287460855560        0.70604474355656
O           30.30311780136491       -9.30134953040170        0.37959927208036
O           30.91070253750686       -7.62689482623340        1.71781573114809
C           29.15366879093886       -7.59020458783350       -1.45731955346054
C           28.57558419521036       -6.70394609373069       -2.35267181836576
C           28.58081487074373       -5.34082205822758       -2.09212086921719
C           27.96124543613729       -2.73942702144126       -0.47179072484790
C           26.69631891505456       -3.40943549232708       -0.49166020697201
C           25.74638797128193       -2.45574033711528       -0.34139042717905
N           27.78793576180422       -1.38773543222654       -0.27751740073156
C           26.43284849662395       -1.20867014233101       -0.22375752839120
C           25.77196432015144        0.01852797643442       -0.12788902295446
C           26.45007536644719        1.23260009600112        0.00751119964272
C           25.78556757725962        2.49533332788908        0.06108795958768
C           26.74336290394507        3.42978280157779        0.27265201431699
C           27.98987588517374        2.73134801146718        0.35911548025281
N           27.80109502384465        1.38229686242392        0.16140609583263
C           29.20074710732283        3.34843041151671        0.64289350278719
C           29.20796837121942        4.80538576657708        0.92292335875913
C           28.52166716456011        5.31647676459756        2.02647823568409
C           28.53218757023640        6.67788492800119        2.29660957505036
C           29.22398082926575        7.54477857556542        1.46742734063202
C           29.91172123206156        7.04605064711331        0.36007951802523
C           30.63983272354124        8.00873190375875       -0.50439450038964
O           31.28118945277233        7.43090067999466       -1.53036953105944
O           30.66745184545636        9.19886763208643       -0.32138243186294
C           29.90415401474785        5.67892158769393        0.09063402778515
C           30.40574952489967        2.65965612999100        0.68113681245331
C           31.66182503043850        3.26517730827391        1.01581634200413
C           32.60732167575935        2.30670516469603        0.87947020039176
C           31.92750478891530        1.11486387283997        0.47252253547905
N           30.57558705743699        1.33156822949802        0.37897983552850
H           33.65813437661403       -0.07771410449912        0.22172881142423
H           33.68852272898106       -2.53330376747976       -0.59891948188111
H           31.79345947381112       -4.39410586982425       -1.07694013378171
H           30.21012369371384       -5.37262506629299        0.88277665034682
H           30.73512001267951       -9.81970092220381        1.07792661625697
H           29.14867747161273       -8.65476445249551       -1.65759865743367
H           28.11702238648470       -7.07558481944715       -3.26204259573179
H           28.13484826065067       -4.65174292422431       -2.80063222573131
H           26.56324137761404       -4.47342348590901       -0.59956199095360
H           24.67482105829424       -2.56954744228239       -0.31089549176083
H           24.72245163305292        2.63339720939163       -0.05232555470255
H           26.62687360984483        4.49773455197559        0.35846491259440
H           27.98938624042471        4.63714287617541        2.68285142511257
H           27.99911529549476        7.06001204314028        3.15968240498360
H           29.24294414177702        8.61087082013719        1.66343121431831
H           31.72827654531780        8.12319860094539       -2.04391337432876
H           30.42920966606678        5.29493904552239       -0.77593732351728
H           31.78917832324650        4.29162068131488        1.31908641815965
H           33.67176992122037        2.37967205134387        1.03579252650878
C           21.79410505057745        0.03318762572325       -0.17892455651588
C           20.57288889517265        0.02299526342481       -0.16381783346015
C           23.14490267473940        0.03229573127011       -0.17778383701919
C           24.36611730610379        0.02947090885204       -0.16142908391848
