115
 energy: -211.542476892834 gnorm: 0.000349901825 xtb: 6.5.1 (b24c23e)
Ni          16.16387225198266       -0.01529962163628       -0.02275576675601
C           12.75507034350982       -0.10581554716578        0.01696037699867
C           13.41733291418869       -0.93728282875291       -0.86261921700329
C           12.75145903974499       -1.82959675359305       -1.76517504514276
C           13.71780463042274       -2.45822729844035       -2.47414767873321
C           14.97162414293907       -1.95399731157583       -1.99764561422380
N           14.77831600605472       -1.02079740430613       -1.01128190899362
C           16.19578623996787       -2.37837601933538       -2.47139213560835
C           17.40746659487866       -1.92308486292845       -1.99604152505881
C           18.67121953543941       -2.39640301483714       -2.47178337315702
C           19.62201002354982       -1.73999829340892       -1.76493576025631
N           17.58082318035630       -0.98052620991716       -1.00907142467485
C           18.93500193023443       -0.86433890460318       -0.86613352488186
C           19.59324049456006       -0.00293426486119        0.01596502809364
C           18.90911957385662        0.87152362206596        0.86464676015967
C           19.56952964691081        1.78240844220834        1.74820950236785
C           18.59854272126690        2.47312097320202        2.39210774699349
C           17.34914951844061        1.97554795477743        1.90319992269029
N           17.55124622950744        0.99193514590867        0.96283998580386
C           16.12399562900064        2.42849090932824        2.34513690463437
C           14.91336715668993        1.93456147016904        1.90517203593345
C           13.64534063464557        2.38803226391896        2.39496290554342
C           12.69913133242931        1.66621834789215        1.75049451717200
C           13.39143960829399        0.77885040126734        0.86308455912945
N           14.74858394862794        0.94888706270761        0.96588817080211
H           11.67198873825277       -0.13995445232300        0.03452525649501
H           11.68081635950286       -1.94106814127173       -1.83256393565065
H           13.61477156599517       -3.20055992609774       -3.24977486638388
H           16.20668158087097       -3.12544345362408       -3.25662666541826
H           18.79407429265127       -3.13793605779963       -3.24506627108286
H           20.69461692374628       -1.82514463006083       -1.83414229530880
H           20.63968747232896        1.86948511616107        1.84683500821238
H           18.69856197097863        3.24847356226341        3.13491064011124
H           16.11237758028028        3.21217707425485        3.09382202122512
H           13.51973408602050        3.15857445409522        3.13911705570433
H           11.62614377869902        1.71569143274784        1.84797539519481
Ni          43.10106830804475        0.00651571730850       -0.00923973545703
C           46.51135783113687        0.04630904095989       -0.01354337574307
C           45.84695046164730        1.25364356236697       -0.07963389415998
C           46.51095257148815        2.52188224346640       -0.15038705653927
C           45.54245481256942        3.46654650452388       -0.18411235832897
C           44.28937999355678        2.77310765599795       -0.13407496116566
N           44.48508722143986        1.41686157200609       -0.07477992123322
C           43.06437359455239        3.40731512563425       -0.13422537948694
C           41.85389942877102        2.74845924117927       -0.08634818792758
C           40.58937037690485        3.41838462039999       -0.08491644305509
C           39.63961579709974        2.45357266095444       -0.04813080821338
N           41.68233702855450        1.38432502929050       -0.04619662998934
C           40.32796758139214        1.19946520881216       -0.02781562467486
C           39.67191024096007       -0.03377887101460       -0.01333800307606
C           40.35724426087782       -1.25084062099379        0.00474300129363
C           39.69845077756101       -2.52066650828146        0.02708603563773
C           40.67044912394154       -3.46273844765002        0.07054309169516
C           41.91890957232863       -2.76330663315792        0.07294729846469
N           41.71557486607231       -1.40364188383623        0.02771501759603
C           43.14425589026432       -3.39374340670163        0.12447611337040
C           44.35425954726147       -2.73133699281740        0.12072837878276
C           45.62326330903136       -3.39525241307785        0.16971614719768
C           46.56941809176885       -2.42847181581853        0.12890292528712
C           45.87587652097205       -1.17626310581422        0.05624946925212
N           44.51816929745340       -1.37118513410735        0.05631933296194
H           47.59504166396959        0.05919246036637       -0.01545370039180
H           47.58185567644913        2.64865882015496       -0.16908653531395
H           45.64364749266301        4.53905358468286       -0.23670936599097
H           43.05169090444004        4.49040211730259       -0.17407314261189
H           40.46550346344205        4.48933296208824       -0.11089427655727
H           38.56687994452512        2.56152535940259       -0.03760827859316
H           38.62853779426551       -2.65342529474746        0.01363912231378
H           40.57180204314053       -4.53621198647268        0.09997422849201
H           43.15661377348282       -4.47666528037465        0.16849707046134
H           45.74949996847550       -4.46491592007137        0.22595000623932
H           47.64303186929779       -2.53028302192848        0.14450619961236
C           22.21996611606680       -0.00310157669884        0.04428008851072
C           20.99872688411188       -0.00384518290394        0.03543651516342
C           23.57026685174320       -0.00462192390435        0.04639616200554
C           24.79157313870476       -0.00606546375023        0.03828144838791
C           35.69272644487151       -0.07044093671500       -0.01515363679515
C           34.47186962299238       -0.07079204897979       -0.01327871562441
C           37.04413956553185       -0.06310554211208       -0.01748100695197
C           38.26491254536520       -0.05006727375563       -0.01467669110655
Ni          29.63127868741307       -0.02600499197354       -0.00232505746499
C           26.19669152786897       -0.00993876771041        0.02574450152813
C           26.88001975752655        0.89699607888901        0.84057098696506
C           26.21817342679531        1.83893008785161        1.68937189839096
C           27.18813896470042        2.55963797382923        2.30158812575822
C           28.43735992849420        2.05188294715364        1.82451063452072
N           28.23750602073742        1.02661316180131        0.92945832026302
C           29.66162059322600        2.54807101815609        2.21932460743366
C           30.87445479318109        2.06516957609996        1.77555527005974
C           32.13610032324586        2.58909240895979        2.19966106068823
C           33.08909049047348        1.85786429656991        1.57364096386772
N           31.04980241253201        1.02454929149966        0.89347303118012
C           32.40463036021475        0.89176325514087        0.77092893627737
C           33.06531190707916       -0.06081880193871       -0.00904400730045
C           32.38247450023044       -0.99735174847484       -0.78906255409599
C           33.04411047189351       -1.97194684260156       -1.60051458322219
C           32.07421096984910       -2.67450392655384       -2.23343366005161
C           30.82510937048091       -2.12604984856392       -1.80314217721622
N           31.02476004292885       -1.09878083035588       -0.91062971229564
C           29.60116916599451       -2.57872452499909       -2.24840254536878
C           28.38831152330097       -2.06979373657840       -1.83510026370414
C           27.12680642217712       -2.55869640606455       -2.29933413530477
C           26.17367965489580       -1.84136483498118       -1.65742047956524
C           26.85802109683750       -0.91695680853516       -0.80717462652635
N           28.21254863494348       -1.05608453929437       -0.92198091179600
H           25.14799448789688        1.92466230354009        1.78857042262647
H           27.08717004117421        3.36440056745120        3.01225627242488
H           29.67136181188140        3.36947209219220        2.92656062808642
H           32.25630904225731        3.40901289469308        2.88970795900562
H           34.16149268216677        1.94799321546940        1.63889234748598
H           34.11417580176693       -2.08621482010549       -1.66667585054423
H           32.17498568997765       -3.49071412709285       -2.93096682723140
H           29.59186062047313       -3.39037862861413       -2.96682349687290
H           27.00661424254357       -3.35072426992552       -3.02122829005768
H           25.10128058683215       -1.91723915256375       -1.73910249659167
