294
 energy: -474.921577052465 gnorm: 0.000429309899 xtb: 6.5.1 (b24c23e)
Fe          38.80007555943855        0.06506518392003       -0.21783967750124
C           35.45029170615000        0.25004918399581       -0.68120887184753
C           36.08912778023593        1.36023225480933       -0.16786376186027
C           35.40755728540748        2.56006202215470        0.21368027133414
C           36.35311473777001        3.41478190469682        0.67031655888439
C           37.61521330480368        2.74612746742155        0.53764022354760
N           37.43527738455310        1.47635252509567        0.05852906902062
C           38.84270608399179        3.34284174842544        0.80422470096001
C           40.05210962349512        2.68736905351845        0.62187791221256
C           41.32959060891936        3.32223136635110        0.75407159284887
C           42.26463898295194        2.37887334451216        0.48758474234251
N           40.20961341353965        1.36874845558856        0.26780394467831
C           41.55662674732586        1.16947205299637        0.20585939046544
C           42.19625471543598       -0.05725491894712       -0.01339846019909
C           41.49861128968131       -1.25510774802597       -0.21547838888938
C           42.14541614795782       -2.52372637840317       -0.34027542018918
C           41.16829724090513       -3.43800405415966       -0.55050340655830
C           39.92762271953769       -2.72113021572583       -0.56702607567676
C           38.71103522067166       -3.29830848426983       -0.89831633965707
C           38.67415655238625       -4.75478103527553       -1.18100544380133
C           38.39934267399222       -5.21369463609188       -2.46730436374572
C           38.37167390038516       -6.57826037147292       -2.73879456325410
C           38.06115356980389       -7.06615705054277       -4.12810257499359
C           38.61392645313158       -7.48225175103837       -1.71005987898527
C           38.88846359525549       -7.03805137737899       -0.41893841266711
C           39.16210982494882       -8.03238318680914        0.67695882287812
C           38.92170962384903       -5.67262858210508       -0.16099258763213
C           37.53494425591028       -2.56541523711136       -1.01775047819659
C           36.27685812077992       -3.12804180670681       -1.41522753890428
C           35.37142970126162       -2.12195019515904       -1.38749438288443
C           36.07132834826555       -0.95255684105692       -0.94820062266729
N           37.39604312524441       -1.23330887583132       -0.73734712940845
N           40.14766197408981       -1.38308120696796       -0.33690594731240
C           38.86924988799875        4.75432333305699        1.25791651593026
C           38.38096684968352        5.76907191600897        0.43589507578940
C           38.41416603728472        7.09435851412112        0.85554649186112
C           37.91245717447166        8.19044519678655       -0.04526121607815
C           38.93733922943481        7.40008823744372        2.10860535875904
C           39.42864249509638        6.39826580384129        2.94022794617647
C           39.97269074667157        6.73878029401746        4.30129501999973
C           39.39452285985492        5.07667404426082        2.50829351552136
H           34.38104293057621        0.31495300882684       -0.84930907616211
H           34.34115595572219        2.70596204993583        0.14521946119565
H           36.22069734934358        4.41029718448205        1.06185144568889
H           41.48001152412340        4.36008324083361        1.00281828335630
H           43.33833100114089        2.47620719523309        0.48582811003929
H           43.21032990770777       -2.67836431122768       -0.27351576504840
H           41.26868303829577       -4.50008140839503       -0.70407384385494
H           38.22428547682893       -4.49840991084363       -3.26343975845280
H           38.49673796415534       -8.05021799937356       -4.30174950515108
H           36.97959194600170       -7.14404986127871       -4.26075632649730
H           38.44448662829445       -6.37261259052562       -4.87694810215333
H           38.59092316073355       -8.54765611883961       -1.91518154459532
H           39.12879498359155       -7.55429399200502        1.65576002883634
H           38.42908063259090       -8.83985726236045        0.65424001315773
H           40.15242800937059       -8.47278216846249        0.54242016727130
H           39.12677721910133       -5.31233150001810        0.84108553864851
H           36.11830762157881       -4.16234037269495       -1.67401712498325
H           34.31888519967517       -2.15339945795159       -1.62058415517166
H           37.99069288237988        5.51980007355696       -0.54473998254391
H           37.44566033836009        8.98615343964258        0.53595908666128
H           37.18759573011157        7.80425665636892       -0.76193564155160
H           38.74620679804123        8.62304885469131       -0.60300995041570
H           38.96420409411706        8.43303355169868        2.44021092098048
H           39.16156486106642        6.74992712586806        5.03295536679236
H           40.43859002741754        7.72447752753487        4.29726734718918
H           40.70864690843439        6.00107603058902        4.62144202343137
H           39.76533248043748        4.28530172415243        3.15044134195206
Fe          94.45459860333128        0.07936583236838       -0.08826985251891
C           97.80429629682840        0.51749716367222       -0.44278364801072
C           97.15403392854058       -0.26956832695560       -1.37072224908126
C           97.82505794063405       -0.97046318209803       -2.42325854278404
C           96.87065803488672       -1.63438564169700       -3.11690111608851
C           95.61384038319153       -1.31481240360804       -2.50383062462970
N           95.80403435099036       -0.49639101579577       -1.42211392230071
C           94.38359752784046       -1.74057870339076       -2.99048554781777
C           93.17735823001298       -1.39699099671817       -2.39613987422972
C           91.89762291978414       -1.73215821308460       -2.94606332589021
C           90.96522552101872       -1.22940300831487       -2.10206970528911
N           93.02435977553901       -0.67508161801163       -1.23628351013877
C           91.67677758510987       -0.59586840701556       -1.03645151679906
C           91.04293487509048       -0.03031324829804        0.07434431396406
C           91.74559902421528        0.52658918171124        1.14778786322027
C           91.10762044293028        1.01808958317457        2.32865979021347
C           92.09002566816064        1.49147874744421        3.13197445930001
C           93.32566134781840        1.29670361898284        2.43332384433072
C           94.54856742167217        1.76476469729603        2.89186397017608
C           94.59328697798159        2.44646286066505        4.20978184874507
C           94.88100484369483        3.80720365768036        4.28735476393547
C           94.91622961194909        4.45174116049099        5.52021065736887
C           95.23988762714445        5.91943881560342        5.59661710595950
C           94.66918669317168        3.72149920507037        6.67775527448681
C           94.38273199633547        2.35997837426747        6.61565090384814
C           94.10448471021688        1.59047650895274        7.87862345409759
C           94.34164391091750        1.72838268232281        5.37816380531113
C           95.72502068673451        1.65098836486898        2.16112819910513
C           96.99049063785969        2.16480621596169        2.59933716308454
C           97.89599704770653        1.84225320537993        1.64633653606788
C           97.18838665677043        1.11022699453478        0.63961115373587
N           95.85760307798193        1.01795134930195        0.95385354392601
N           93.09715076981796        0.69625254397698        1.21767307318194
C           94.35195367997584       -2.57081029908560       -4.21928830337315
C           94.81645476967122       -2.05570667973206       -5.42867444306242
C           94.78172015738554       -2.82811013459541       -6.58445839464405
C           95.25817933183848       -2.25967828947730       -7.89385175129928
C           94.28096871090317       -4.12531192281710       -6.52293193422054
C           93.81416135723822       -4.65345898658288       -5.32303419356693
C           93.29537644814380       -6.06482692981586       -5.26425123637795
C           93.84991213149836       -3.87037681329064       -4.17414265370999
H           98.87554114528247        0.64646098352673       -0.54942010640581
H           98.89130201877461       -0.95614878959181       -2.58490139630181
H           96.99379581518689       -2.28521230560198       -3.96731937357050
H           91.74360317500545       -2.27265537551781       -3.86570494142975
H           89.89092745602721       -1.28103323914377       -2.17646755396710
H           90.04436135228893        0.99477961266554        2.50571725610994
H           91.99656649094607        1.94800116803612        4.10382067558568
H           95.06083947478669        4.36768738841229        3.37651922825043
H           94.81104566839161        6.36663621862096        6.49349458199410
H           96.32281803621356        6.05929652478085        5.63050522094630
H           94.85821982008292        6.44627675004591        4.72168374306143
H           94.69807675934558        4.21818674721669        7.64221062580795
H           94.13735441716645        0.51637230132765        7.69699241642779
H           94.83517314243788        1.83998486378797        8.64912113908399
H           93.11304641994441        1.84484801247603        8.25964633084840
H           94.12687511519913        0.66728334461852        5.31498801326386
H           97.15295692906190        2.69604750664144        3.52310380664809
H           98.95343551857493        2.05275459051810        1.61964023661671
H           95.19041672750986       -1.03844027440564       -5.46648827192486
H           95.72453075204500       -3.03285897156357       -8.50505773788533
H           95.97682637084561       -1.45639756197630       -7.73101885268688
H           94.41175167676384       -1.85199576396036       -8.45128583071837
H           94.25295248914617       -4.73181570978823       -7.42240280772335
H           94.12046232066415       -6.75594359413673       -5.07717103932275
H           92.82604589718824       -6.34521541521553       -6.20753433509323
H           92.56832358146154       -6.17847984645713       -4.45998853785476
H           93.49859181721091       -4.27347107718227       -3.23062531734467
C           43.59539697136930       -0.09088794785182        0.00132412181314
C           44.82204031306721       -0.10731975686761        0.00398196715360
C           46.16074604735842       -0.11936595423981        0.00421324083995
C           47.39387016598801       -0.12011178681359        0.00086956689793
C           48.72773072743338       -0.11748493480180       -0.00371202845687
C           49.96091771634681       -0.10904637951571       -0.01002160820791
C           51.29934719055991       -0.09977685520650       -0.01789609072932
C           52.52625507718952       -0.08858810501209       -0.02676723658624
C           62.14770967103627       -0.03438136401413        0.04417060588393
C           63.37473715757730       -0.02996123895120        0.05678832703188
C           64.71319394037232       -0.02577098880282        0.06410570298244
C           65.94657117054577       -0.02462059859015        0.06695893915379
C           67.28038799751499       -0.02314181427456        0.06712929212749
C           68.51371425958851       -0.02117943354108        0.06186477595654
C           69.85227556258545       -0.02298718928312        0.05425260355340
C           71.07921380210463       -0.02411933946963        0.04115355802598
C           80.70750439302743       -0.03302320504666        0.15337019432578
C           81.93247984914282       -0.03624748493521        0.17929145702473
C           83.27422747137580       -0.04147900018707        0.19686560273368
C           84.50550669505678       -0.04864625554550        0.20440678685649
C           85.84284154600195       -0.05253401845702        0.20141694719836
C           87.07392177270013       -0.05153346393306        0.18511883278922
C           88.41587567034999       -0.05015940505355        0.15983079374855
C           89.64035215251188       -0.04737831112364        0.12541990679344
Fe          57.33718314508243       -0.06320126148527       -0.02660034757798
C           53.92471731491433       -0.08026086885880       -0.03394012459916
C           54.59066441277650        1.15205226316235        0.01232682850872
C           53.91534189232762        2.40879036388061        0.08936382828932
C           54.86560838723259        3.36731860516428       -0.03830716450659
C           56.11645966158407        2.68891072364178       -0.19807127098251
N           55.93539458734409        1.32993517104056       -0.11968920050081
C           57.32090947187019        3.32909265810707       -0.46380056329000
C           58.53336984881600        2.65599653196511       -0.54585821989967
C           59.78207107182862        3.28613505202819       -0.85308207428145
C           60.74270913106980        2.34089113842763       -0.70617707858189
N           58.72711230538439        1.32465215841344       -0.26758808672921
C           60.07539743956167        1.13680061410932       -0.32361672480468
C           60.74931871412841       -0.04194552219695        0.02491594279247
C           60.07939224686996       -1.23072760797746        0.34565608373591
C           60.74961753796267       -2.43069356254852        0.73587241237418
C           59.79836817453147       -3.39196487373425        0.83135984168375
C           58.55251295436573       -2.77448862921220        0.48922133054229
C           57.35182925084865       -3.46181812639033        0.36024654232832
C           57.35648866530506       -4.93368959094074        0.53227392489553
C           56.60729915181127       -5.52251361460047        1.54982115620057
C           56.60741499923861       -6.90318437515898        1.71827406055965
C           55.81780000708733       -7.52956045658507        2.83554435003896
C           57.35914176154824       -7.69469583713810        0.85552166807788
C           58.10854152309683       -7.12184031503558       -0.16837771395144
C           58.92629405188580       -7.98994414918153       -1.08593039390751
C           58.10779111646503       -5.74001913060637       -0.32213559741087
C           56.14488831764909       -2.83039675866285        0.08528856903874
C           54.90221957050222       -3.51818098132019       -0.09721302250506
C           53.94141002293012       -2.56718613757129       -0.20010945580651
C           54.60312515695743       -1.30551547564645       -0.09361180497385
N           55.94931524143645       -1.47173320452970        0.03569677135666
N           58.73664031100915       -1.43652645895496        0.23869514675644
C           57.31014424691627        4.79738739828224       -0.66601881928293
C           58.01800761352119        5.63274177289757        0.19616367710807
C           58.00381733550115        7.01181702128462        0.01228693534813
C           58.77697440779688        7.90555036290309        0.94384599064580
C           57.28462137779984        7.55030816450168       -1.04975699279280
C           56.57530380080468        6.72834054316858       -1.92148662280358
C           55.81965294637498        7.32296040714948       -3.07884969175558
C           56.58799377490721        5.35265281815252       -1.72209546676199
H           52.85157823075311        2.52707028600425        0.21874857832962
H           54.74094741217399        4.43777451015945       -0.02339034975903
H           59.89884206183571        4.31750992208182       -1.14332565623643
H           61.80815115085854        2.43613903643288       -0.84066831992654
H           61.81063397053023       -2.51295441035876        0.90847404965423
H           59.91963168776761       -4.42602898602959        1.10995913454231
H           56.03393581602298       -4.89371394355673        2.22209445975534
H           55.50909007338589       -8.54170230923388        2.57359084471002
H           56.43135224834234       -7.58389875972536        3.73774880520148
H           54.93154265715039       -6.93717631445374        3.06390190416441
H           57.35868621866122       -8.77274281612678        0.97965521852281
H           59.11770428034994       -7.48454351455137       -2.03249314071175
H           58.41469132052982       -8.93198347568569       -1.28517731585421
H           59.88777895376639       -8.21885697866030       -0.62068966549876
H           58.67643734231785       -5.28205048654867       -1.12398516896454
H           54.78903175357022       -4.58906964554773       -0.14142507437318
H           52.87929923412513       -2.69394758494985       -0.33485469009715
H           58.56477986876492        5.20167153909195        1.02762035620601
H           58.36510741490478        8.91474235290232        0.94681270244499
H           59.81944948860499        7.96327934289949        0.62254026964724
H           58.75831522261584        7.51303842901892        1.96090034009926
H           57.27265876769383        8.62507162508592       -1.19916813653027
H           55.38848292369191        8.28647158812778       -2.80577702823314
H           55.02042745258502        6.65757071109066       -3.40534802141199
H           56.49680297616744        7.48171702988617       -3.92122567423420
H           56.04698637011453        4.70015391905211       -2.39857527116498
Fe          75.89250142405345       -0.03521456989161        0.03167461348412
C           72.47802851626572       -0.02713178631422        0.02912875562406
C           73.15300590271468        1.20078546970303        0.02576171366788
C           72.48488068518864        2.46368141533775        0.05732211976916
C           73.44186071445219        3.41186258823826       -0.09144104056171
C           74.69049661337347        2.72174687092358       -0.21746908466019
N           74.49956676991762        1.36587007628589       -0.10300264470194
C           75.90215922471498        3.34906925949946       -0.47426608725506
C           77.11278223353776        2.66782795164080       -0.52001785654253
C           78.37001528165187        3.28908073592189       -0.81006544055115
C           79.32350954001831        2.34234590317864       -0.63165431506212
N           77.29418900306857        1.34008033957973       -0.22107124632105
C           78.64399807626282        1.14520456139255       -0.24877987539751
C           79.30547795078904       -0.03319378087379        0.11590225274149
C           78.62723200972151       -1.21718911803700        0.42687550462312
C           79.28853563581774       -2.42406460583359        0.81128531007022
C           78.33209412258965       -3.38118284737681        0.89173634030366
C           77.09092611953110       -2.75356577062830        0.55109787881212
C           75.88441049795227       -3.43383744605538        0.43056783197392
C           75.88799065162290       -4.90747958207493        0.59105398652914
C           75.16337603955698       -5.50615362326945        1.62021231240222
C           75.16663384231312       -6.88874550588865        1.77397619706281
C           74.40395827130888       -7.52597726280427        2.90383151218300
C           75.89676856685402       -7.67167528645523        0.88537828909379
C           76.62214201914740       -7.08854027298075       -0.14999921914037
C           77.41838187999423       -7.94661633697458       -1.09549875272941
C           76.61839569408114       -5.70528328886362       -0.28913919620564
C           74.67866733511833       -2.79485150833961        0.17641059860079
C           73.42655670645502       -3.47415341275368        0.02714065504388
C           72.47196297547180       -2.51670430597513       -0.06791386439307
C           73.14622431180752       -1.25893926352653        0.00579876982635
N           74.49278319952612       -1.43423844086109        0.11468452646178
N           77.28247051494775       -1.41617085670725        0.30960803049149
C           75.90588719864412        4.81479728966349       -0.69688816223411
C           76.59836545057388        5.65551139641978        0.17251603601976
C           76.59808528596412        7.03244684684471       -0.02706178988508
C           77.35548606689859        7.93086552095911        0.91290643106080
C           75.90741629734067        7.56345769969219       -1.11150128420041
C           75.21338804393014        6.73606451909710       -1.99039770096714
C           74.48830528182638        7.32282596183305       -3.17116865278076
C           75.21276187498667        5.36250496608056       -1.77596578325624
H           71.42086341160268        2.59227481894341        0.17433345947191
H           73.32372160064774        4.48299917976741       -0.11054660679130
H           78.49678094414186        4.31616022201239       -1.11108585359486
H           80.39183647317552        2.43164171004562       -0.74578041474537
H           80.34819391431230       -2.51331604573630        0.98867872461927
H           78.44622417659542       -4.41848999309548        1.16114231692409
H           74.60711906132705       -4.88432146678605        2.31303035482142
H           74.10810487409411       -8.54358385125959        2.64835716274365
H           75.03133556478954       -7.56802620594611        3.79715105019694
H           73.51146812722838       -6.94772752411784        3.14406337670026
H           75.89874579040325       -8.75094030271295        0.99847364464343
H           77.57917313817693       -7.43479726573887       -2.04433209541068
H           76.90733314317575       -8.89089908357527       -1.28520658179186
H           78.39446106996678       -8.17153183734403       -0.65959271258923
H           77.16937872718142       -5.23884721809470       -1.09842051149981
H           73.30368062816255       -4.54453992122643       -0.00056117840370
H           71.40640233718644       -2.63614838519889       -0.18046323586305
H           77.12254810393775        5.23040138911309        1.02141341005313
H           76.95989967831534        8.94616379331803        0.88545088815909
H           78.40845221228523        7.96659376001035        0.62431551704879
H           77.29833495356451        7.55668705868381        1.93546541828053
H           75.90582022652751        8.63653245158825       -1.27308810337325
H           74.05732392438831        8.29194566635389       -2.91829671619038
H           73.69232945468454        6.65904400308624       -3.50872912889901
H           75.18547150281769        7.46824262908221       -3.99951016937643
H           74.68353464234572        4.70592016305479       -2.45780423556497
