230
 energy: -394.976649271705 gnorm: 0.000691726024 xtb: 6.5.1 (b24c23e)
C           36.37669668690863        0.05706756576839        0.08305826192989
C           36.99125503585137        1.28626589148072        0.28358842799230
C           36.34543407525716        2.53845376604486        0.48509790889817
C           37.31259986140299        3.49030705814977        0.64461289648164
C           38.58085278845340        2.84821119443694        0.55564227338279
N           38.33607145003949        1.52374251467838        0.32915269519267
C           39.84702918301978        3.43622384420236        0.65156606637341
C           39.88277756457077        4.89372061710024        0.91932241228045
C           40.46158604928042        5.78366960358938        0.01531113874405
C           40.46637144670153        7.13802038793992        0.30947223473189
N           39.94479276930546        7.63922163454427        1.42461446488030
C           39.39388376277721        6.79752137903762        2.29321161111029
C           39.33615424309106        5.42843613500240        2.08550698042865
C           41.06085851762494        2.75746626936277        0.52255554464170
C           42.36075452628825        3.38366536394179        0.68547143016336
C           43.27847793601305        2.41199931375196        0.50315022433875
N           41.21107689037529        1.42961064942042        0.26181937431620
C           42.53821878545853        1.19342821439447        0.23726180542215
C           43.17056038086679       -0.04299664205850       -0.00485103351032
C           42.52932331530662       -1.27292367163590       -0.24501135077688
C           43.16757247201755       -2.50885626543363       -0.53071584539513
C           42.19596235052003       -3.45462098709728       -0.70770669294592
C           40.93318414979736       -2.82589466154658       -0.52403290854824
N           41.18669116634968       -1.50687721657241       -0.25481638889738
C           39.66778769562755       -3.41452813615247       -0.62128393329096
C           39.62786130850290       -4.86759055037028       -0.90696350825841
C           40.21069280444200       -5.79436355700590       -0.04295619392002
C           40.14415502777414       -7.14342373215289       -0.35348859911317
N           39.55070889215559       -7.60637937257604       -1.44893151778865
C           38.99421617501153       -6.72988335450809       -2.27896044855375
C           39.00477505361151       -5.36278849597830       -2.05229510356417
C           38.45347324564571       -2.73723936006314       -0.46691558040409
C           37.14797026761147       -3.37810962842260       -0.50974918572096
C           36.23756440857873       -2.40402908781916       -0.31099364973095
C           36.98557234990245       -1.17104990288465       -0.13842779138913
N           38.31674597323043       -1.41124541450712       -0.23013920627713
H           35.29158728617686        0.06711213582836        0.10282594717581
H           35.27651561749688        2.67986296616174        0.49797191593245
H           37.16664365765691        4.54662496181534        0.80198473205309
H           39.05748610346028        0.82065768536087        0.20896830762695
H           40.88780726477388        5.42163209347708       -0.91266545761922
H           40.90709584193171        7.85092655856915       -0.38125578718331
H           38.97971245363307        7.23626788994765        3.19632718405919
H           38.88851254016033        4.77909556716287        2.82856448670685
H           42.52650357934080        4.42223558489876        0.92149230541095
H           44.35332878861600        2.48519993844091        0.54660726968683
H           44.23488325275392       -2.64517485128957       -0.59807401188042
H           42.33824244590710       -4.49412430071692       -0.95409089219946
H           40.46832660740859       -0.80826076298432       -0.09500534204189
H           40.69280035555031       -5.46486361897100        0.86979127419875
H           40.58662336947614       -7.88369703497682        0.30669606224910
H           38.51848323711963       -7.13828084984805       -3.16581845937297
H           38.54945453646132       -4.68476599243586       -2.76424882292219
H           36.97702600276138       -4.43222863956618       -0.65755781921536
H           35.16234890681472       -2.48189690464663       -0.27209339175488
C           83.50295379461062       -0.07127957905456        0.03010617979095
C           82.89222314136497       -1.27106653284423       -0.31098643351271
C           83.54167501924825       -2.48550570057041       -0.67016840458800
C           82.57750506336625       -3.42074653374707       -0.92035996635561
C           81.30762586055916       -2.81046111435441       -0.71132180578537
N           81.54829971949711       -1.51368994264641       -0.35643258320124
C           80.04314954730582       -3.39323472160072       -0.85220165198990
C           80.01134259521524       -4.82720459771463       -1.22563459047305
C           79.40917162554140       -5.25419474305281       -2.40872545053954
C           79.41056719404912       -6.60497844520004       -2.71861463463638
N           79.95969242810654       -7.52760279647449       -1.93497865788695
C           80.53248251839564       -7.12971152501351       -0.80360075406434
C           80.58600919355713       -5.80176996913843       -0.41033255293558
C           78.82751779611681       -2.73097750413045       -0.66569429180606
C           77.53044255584805       -3.37773990392740       -0.75329281433701
C           76.60973761613198       -2.42187773769275       -0.51157083380432
N           78.67308875829485       -1.41363074222980       -0.35853072947110
C           77.34549813703721       -1.19550486237545       -0.27052176789816
C           76.70917824434265        0.03399959020714       -0.00484862186073
C           77.34708796535932        1.25903430370352        0.26753135158207
C           76.70597802507001        2.50288540929105        0.50873680078612
C           77.67464077571950        3.43615564559983        0.75495992781854
C           78.93815720624308        2.78693794227409        0.68052624080347
N           78.68854085241841        1.47584088527038        0.37233991779099
C           80.20103199407633        3.36135747581706        0.86094258991027
C           80.23392815220568        4.79651405203345        1.22650814387804
C           79.63162486033767        5.26010597543803        2.39600630076401
C           79.69155705605718        6.61135864795633        2.69796798484234
N           80.29660385005096        7.50172654209568        1.91837741001512
C           80.87143565254451        7.06892982402790        0.80074119772093
C           80.86853971798793        5.73752869901843        0.41606885034784
C           81.41734848840501        2.68367713644555        0.72599385334383
C           82.72041280412171        3.28318025972655        0.96972383179060
C           83.63394519233022        2.32026827907293        0.73415629232690
C           82.89008616534254        1.13086858609046        0.35788008418829
N           81.55833435015676        1.38411861192051        0.37317121904394
H           84.58817866741657       -0.08402894867200        0.03930041831114
H           84.61078179775389       -2.61205907773734       -0.73143721733044
H           82.72662057930414       -4.44226592572184       -1.23041140908096
H           80.82474851551882       -0.83092239262117       -0.15770994121851
H           78.96049760810136       -4.53606664744741       -3.08466904938060
H           78.95256153762892       -6.96073291264476       -3.63692116956853
H           80.96846680829452       -7.90678967736267       -0.18250853649749
H           81.05219383765986       -5.52596204655250        0.52816250731972
H           77.36881761422154       -4.42369828048483       -0.95748771455312
H           75.53565417520987       -2.51309032722605       -0.48681263121515
H           75.63892229861746        2.65543748928578        0.48915496294570
H           77.53011640800440        4.48418540215114        0.96055233141149
H           79.40838998175434        0.77298698722950        0.24024683784879
H           79.13949098515000        4.56886814267030        3.06990751591810
H           79.23456373668454        6.99435543179124        3.60576344031735
H           81.35525011044056        7.82027914833460        0.18349481781280
H           81.33840406566887        5.43312898183038       -0.51153630542799
H           82.88784069158210        4.29891619472243        1.28983947548842
H           84.70874040987705        2.37620293701924        0.80731734590231
C           45.79893755618194       -0.07004848158562       -0.01198214413263
C           44.57678251903427       -0.06225151846103       -0.01125878903197
C           47.14839905895253       -0.07499928760436       -0.01276792032497
C           48.37082027064001       -0.06429435714795       -0.01086169889914
C           59.26612596844118       -0.01079336961628       -0.04711615033242
C           58.04336819055661       -0.02011756762982       -0.05027083331146
C           60.61453214201649       -0.00359049141572       -0.04160296157344
C           61.83720547446153        0.00744484747019       -0.03110561134998
C           72.73146187624626        0.07432793275146       -0.01478264119940
C           71.50909040266160        0.07178250376284       -0.01919074550492
C           74.08081295829133        0.06764380057987       -0.01080980622781
C           75.30305274951172        0.05247127056381       -0.00860606024957
C           49.77630057630090       -0.05875517933798       -0.01280231871844
C           50.40800050417868       -1.29646131701726        0.21515884558850
C           49.76408175504742       -2.53210624930718        0.48257144276000
C           50.73274451823981       -3.48351868754542        0.65152528807312
C           51.99706245711319       -2.85674452549477        0.48084565595062
N           51.75000251470325       -1.53419533751859        0.22684399058738
C           53.25985983589387       -3.45477100791191        0.57443450533921
C           53.27888780335640       -4.91287465241536        0.84348106900223
C           53.86683463699529       -5.42721262085472        1.99856079745864
C           53.85502178334914       -6.79674812398159        2.21062330179069
N           53.30904576773764       -7.65726159347145        1.35733739923083
C           52.74977241519364       -7.17574227018572        0.25204819800937
C           52.70733674140726       -5.82265632558360       -0.04535974125512
C           54.48313944133037       -2.79750307773625        0.43624625601875
C           55.77079566983446       -3.46724836309175        0.47942463153392
C           56.70541464810600       -2.51027956124812        0.30439550738727
N           54.65664079329606       -1.46399406506468        0.22101685902021
C           55.98719663052307       -1.26087452947271        0.14713732980266
C           56.63896544740614       -0.02624780313113       -0.04842761292421
C           56.00716159272076        1.21777267333910       -0.24118823109453
C           56.65140010787609        2.46935504101405       -0.41886321372164
C           55.68264048926424        3.42230283775799       -0.57817535150878
C           54.41797027401459        2.77698353993069       -0.51013302274708
N           54.66513866436566        1.44689135153864       -0.29847940264241
C           53.15543777700803        3.37369651885845       -0.60975352446844
C           53.13723588235182        4.83571390396046       -0.85877413979543
C           52.57976399396536        5.72046313890005        0.06339669379772
C           52.59061733107061        7.07876028942822       -0.21195749992445
N           53.10681528255073        7.58800760613563       -1.32588053154239
C           53.63705638057900        6.75116992590596       -2.21177233130833
C           53.67895223835026        5.37863579865370       -2.02322345181545
C           51.93174471194173        2.71212170188208       -0.49807641808553
C           50.64323634756244        3.36179176332786       -0.65978531625977
C           49.70849177248250        2.40356776195825       -0.49321998205554
C           50.42730212481432        1.17064160927698       -0.23814182176928
N           51.75862962517317        1.38383157421988       -0.25380917256744
H           48.69612037210873       -2.66577052891145        0.54380625378526
H           50.58589197734939       -4.52566356419806        0.88350154263165
H           52.46846587316020       -0.83351430165665        0.07803777507529
H           54.31303046260082       -4.76217730445520        2.72827749354121
H           54.30244185827295       -7.22033343049099        3.10501437034690
H           52.31549192164438       -7.90351111397773       -0.42715678291853
H           52.25149007192139       -5.47717430299409       -0.96563555101725
H           55.91743088908996       -4.52696924401321        0.61096163688342
H           57.77819445705050       -2.61429564834713        0.27308678506348
H           57.71965511167315        2.61408691478638       -0.41841082317905
H           55.82920650725490        4.48033687619930       -0.72145364993261
H           53.94657547128798        0.73862368243717       -0.19224882498425
H           52.15758851016579        5.35099695771510        0.99024405324056
H           52.16666679523826        7.78791725094637        0.49290745896636
H           54.04765219290254        7.19682467131680       -3.11308436314467
H           54.11136016517799        4.73370299306579       -2.77896109146246
H           50.49624108216715        4.40590083635564       -0.88340281848435
H           48.63512490301729        2.49432095066534       -0.54013232839327
C           63.24155166260245        0.01667645110727       -0.02595005115461
C           63.87517754177118       -1.21582523211335        0.22591845260626
C           63.23321157113539       -2.44922224926026        0.50810751728393
C           64.20320549888136       -3.39892870205428        0.67917071749288
C           65.46622544766454       -2.77322056081905        0.49539279189046
N           65.21712546674549       -1.45228633983065        0.23414336444264
C           66.72957158970488       -3.37118378541202        0.57677789743179
C           66.75282890196478       -4.82947437230725        0.84400308212080
C           67.35612326134107       -5.34390163730390        1.99116069474528
C           67.35020655919509       -6.71369652854199        2.20152730885619
N           66.79646066057535       -7.57438950197252        1.35342553472541
C           66.22235623210430       -7.09277640359165        0.25582916979486
C           66.17228349746135       -5.73932383062868       -0.03887404112209
C           67.95151744029840       -2.71317228046633        0.42779055952664
C           69.23929385157065       -3.38365315629640        0.45216835047354
C           70.17273256873275       -2.42476411155542        0.28186793295899
N           68.12314730756324       -1.37770097862901        0.22597150536132
C           69.45369424244092       -1.17318227839949        0.14732214566792
C           70.10376965232771        0.06607713015149       -0.01935490217503
C           69.47031454394838        1.31230498202628       -0.18869750701945
C           70.11178986901837        2.56912316296814       -0.33625696588338
C           69.14169564641438        3.51985970377752       -0.50152123847787
C           67.87909831902927        2.86788293233241       -0.46814522265348
N           68.12822025169172        1.53690332535909       -0.26598153787503
C           66.61586567661675        3.45842479919987       -0.59693449035877
C           66.59507675061208        4.92012794891640       -0.84578113867781
C           65.99646687893954        5.80001754308689        0.05515910681105
C           66.00457824738697        7.15830265608289       -0.22023770637990
N           66.55672322300563        7.67238632960052       -1.31452291388248
C           67.12693179707895        6.84039450362098       -2.17996956378179
C           67.17395424555917        5.46830123745151       -1.98984958397805
C           65.39367808439223        2.78995598534883       -0.51484663948132
C           64.10570142040118        3.43075368999610       -0.71217392427859
C           63.17235093501688        2.46966924473372       -0.55362942287057
C           63.89175264057076        1.24385056980118       -0.26828410573361
N           65.22176572384933        1.46289212169065       -0.26160404889029
H           62.16564547999813       -2.58278398547533        0.57591588403277
H           64.05834672862827       -4.43935836021361        0.91995551133196
H           65.93447255466202       -0.75262793823837        0.07558609363105
H           67.81000641086037       -4.67865696410541        2.71592698642199
H           67.81011460344838       -7.13744551151724        3.08947721773652
H           65.78163919326460       -7.82074976772796       -0.41899038209173
H           65.70405761066607       -5.39371701472276       -0.95286388190152
H           69.38651098907629       -4.44500153532343        0.56899225900154
H           71.24517167025051       -2.52860096045064        0.24140080829229
H           71.17920108495112        2.71844250439243       -0.31359775469884
H           69.28614473515434        4.58039345291050       -0.62747135247667
H           67.41120289722102        0.82382961337750       -0.18416242948346
H           65.54462033676410        5.42693919001501        0.96648263092984
H           65.54916845308588        7.86354876114763        0.46883403476579
H           67.56548483093370        7.28969336827377       -3.06622422848315
H           67.63858213876925        4.82736330071472       -2.72973949530791
H           63.95796468348504        4.47110384975737       -0.95227007282467
H           62.09974386674499        2.55435972135800       -0.62431604222963
