254
 energy: -467.278479845511 gnorm: 0.000635108242 xtb: 6.5.1 (b24c23e)
Cu          40.72583171268951       -0.25915853326038       -0.17589001231490
C           37.31027084241857       -0.21477138334689       -0.15034573065100
C           37.95259642699165        0.65948460247428        0.71311991107675
C           37.28950274213040        1.56851335558293        1.60353140937331
C           38.25859934532163        2.24203648710203        2.27346576887998
C           39.51798082641874        1.74786035450347        1.79580254517785
N           39.30737623211999        0.79138272049334        0.85200118608883
C           40.77258373747632        2.19114878161487        2.24354970327342
C           40.79113932868398        3.19647034308865        3.23632302811172
C           40.80456233941023        4.06124253213170        4.08751532774949
C           40.82080830025065        5.06749505864726        5.08041585815442
C           42.02582137599366        5.56988048420479        5.58541360100677
C           41.98693459831935        6.55492769930217        6.55604907838623
N           40.85281518431539        7.05517458406851        7.03999203464251
C           39.70303418374977        6.58280009473592        6.56512569708732
C           39.63243482582180        5.59909998615973        5.59490696467201
C           42.00859744771095        1.71307623217266        1.78231944082388
C           43.28215849144240        2.17314074857459        2.24913076394037
C           44.22812355281691        1.47639731573622        1.56753033865386
N           42.18930343679717        0.75067268236318        0.83137320463850
C           43.53486459967303        0.58923936955023        0.68285732376222
C           44.16389336612045       -0.30509670814796       -0.20034454497644
C           43.49822255595076       -1.18167955774907       -1.07475125267769
C           44.15475029725948       -2.08693894749855       -1.96911514213710
C           43.18087624888413       -2.75821622730559       -2.63674913151153
C           41.92692754154390       -2.26443638294620       -2.15178055811856
N           42.14687334930942       -1.30691837957004       -1.20413560754918
C           40.67225045061650       -2.71048544293121       -2.59432042150831
C           40.65100466795594       -3.71784481997341       -3.58495729692836
C           40.63307458343277       -4.58441790902434       -4.43411496641498
C           40.61384819449517       -5.59494300195199       -5.42260928375560
C           41.80093063188328       -6.13005730453113       -5.93646608343080
C           41.72792293206987       -7.11782874668336       -6.90234857552184
N           40.57694353432094       -7.59087483026720       -7.37368612073966
C           39.44405843237549       -7.08713572618272       -6.89051933425603
C           39.40757650690814       -6.09792874888360       -5.92400380170952
C           39.43643564259802       -2.23429507579791       -2.12867461007213
C           38.15763133318850       -2.69575481867291       -2.58697907251366
C           37.21656720422142       -1.99710443447269       -1.90294040937394
C           37.91641627466419       -1.10534245209636       -1.02324903166206
N           39.26503633354905       -1.27230595987135       -1.18255110134271
H           36.22520580139346       -0.20071436739126       -0.14200208673280
H           36.21931017904535        1.66794211937371        1.69401138560256
H           38.14442136648053        3.00657763507796        3.02550260573267
H           42.97232338427871        5.19079082311871        5.21931966456661
H           42.90669018908849        6.96279990303651        6.96543400283383
H           38.79676247180684        7.01297559830595        6.98172902254465
H           38.67404820352639        5.24329391042733        5.23638181784644
H           43.42398405743181        2.93205951034075        3.00192934054918
H           45.30079277179049        1.54938822213830        1.64925344677257
H           45.22373337684158       -2.18875941815404       -2.06645888544036
H           43.29168305370532       -3.52062579542117       -3.39121108225349
H           42.76016205818456       -5.77380998202124       -5.58068739017906
H           42.63313404295889       -7.55093852845850       -7.31819199204907
H           38.52327686627967       -7.49567050885451       -7.29696389997993
H           38.46196196159934       -5.71612026151947       -5.55839015762806
H           38.01241927952518       -3.45731678619150       -3.33668308653721
H           36.14291315404111       -2.06883685211289       -1.97710118832550
Cu          96.60666622464632       -0.32155013072649       -0.20617390108742
C          100.02243148059637       -0.34663629359373       -0.23671147043324
C           99.38684216939652       -1.54083905097779       -0.54071491943146
C          100.05663386285416       -2.76816912878392       -0.86311461875023
C           99.09257377411623       -3.69521289038484       -1.09297396348752
C           97.82970256432819       -3.03886793733345       -0.91227836030996
N           98.03316341871928       -1.73598714300013       -0.57904917352323
C           96.57840265152498       -3.65814230180952       -1.05884121622868
C           96.56501606332252       -5.02671851249687       -1.41010161669497
C           96.55156627034584       -6.20159118306055       -1.71313193079149
C           96.53256722953211       -7.57024036616804       -2.06677993746998
C           95.32550086752896       -8.25782557228775       -2.23952082869228
C           95.36044755702311       -9.59663844766992       -2.58631145552614
N           96.49264609561634      -10.27228873452722       -2.76607462281388
C           97.64430155825703       -9.62583794650930       -2.60356773701383
C           97.71884648222274       -8.28835807944195       -2.25768362711176
C           95.33915894652056       -3.02325044512455       -0.88514051972450
C           94.06920013479836       -3.66756127712119       -1.03800877863357
C           93.11811811292952       -2.72904254459404       -0.79437410824827
N           95.15126836288697       -1.71293243510416       -0.55184491127405
C           93.80464270330650       -1.50943566627128       -0.49160841256200
C           93.16831161332631       -0.29389571684502       -0.18482658396442
C           93.82693302887077        0.91027648774325        0.11783309678401
C           93.16365042494407        2.13960750827300        0.43252214639448
C           94.13258135108642        3.06196284151555        0.66790550966371
C           95.39021969264691        2.39827187970057        0.49641359696305
N           95.17734852519838        1.09204256399492        0.16223703638008
C           96.64178559779316        3.01326942235351        0.65237176905098
C           96.65790158284845        4.38084563459713        1.00747533097579
C           96.67650029772142        5.55492445828489        1.31341795845354
C           96.69956908815782        6.92253765139962        1.67084836066723
C           95.51530052472742        7.64375195459069        1.86253077623176
C           95.59353945605886        8.97999641206118        2.21230489182961
N           96.74698990103312        9.62250301311747        2.37783079450142
C           97.87729292480654        8.94392273519127        2.19731882390544
C           97.90853283119452        7.60597390488538        1.84681920494554
C           97.88105325505585        2.37560655425751        0.48271693142087
C           99.15645889347449        3.01330595453940        0.64121700108461
C          100.10266114241094        2.07314906860363        0.39144216538077
C           99.40947684899268        0.85613455768794        0.07968385894643
N           98.05963111746061        1.07062996740502        0.14345650187743
H          101.10754657984036       -0.35421643068588       -0.24688692792340
H          101.12748747957038       -2.89042103120674       -0.90443733158058
H           99.21221186698587       -4.73290474074040       -1.36131621547348
H           94.38049440264487       -7.74600116665179       -2.10306193925529
H           94.43904824562483      -10.15445028278708       -2.72697664559398
H           98.54887852025905      -10.20707197271960       -2.75796343185815
H           98.67864908756680       -7.80100380782255       -2.13565324765629
H           93.93288980152671       -4.70497537348289       -1.29865758802701
H           92.04615635153384       -2.84308219392535       -0.81510412885292
H           92.09382662846890        2.26977058478360        0.46708606025922
H           94.01630205136350        4.10048626351819        0.93388175407357
H           94.55416616837979        7.15967048504747        1.73812956358052
H           94.69058909419331        9.56354263389698        2.36742338500523
H           98.80024758447557        9.49855406246195        2.34042662812648
H           98.85216348066078        7.09171996867305        1.70988764334185
H           99.29621700134152        4.04858593654406        0.90911108947480
H          101.17574241444410        2.18002290523496        0.41282315927494
C           45.57018895743230       -0.32639604303804       -0.21088752173556
C           46.79395349775248       -0.35077034598747       -0.22553160202208
C           48.13701154286883       -0.38193645076123       -0.24236675194128
C           49.36670039390836       -0.41312866867220       -0.26346983211072
C           50.70461905430183       -0.44996100858600       -0.28632788555483
C           51.93413617965808       -0.48605454699341       -0.30939597603852
C           53.27663767898574       -0.52504633848354       -0.33592779220454
C           54.50013120759597       -0.56097574089230       -0.36105766001187
C           64.19946785586518       -0.59283651165447       -0.38753867920131
C           65.42398871313364       -0.57637423752630       -0.37524230362681
C           66.76638607059401       -0.56297409359083       -0.36588313440587
C           67.99707798579834       -0.55581606743816       -0.35982182125493
C           69.33484416121921       -0.55289367799155       -0.35750926186704
C           70.56563881305773       -0.55617810607486       -0.35881663916834
C           71.90814176270946       -0.56375717766150       -0.36590170438560
C           73.13275105673368       -0.57578628537278       -0.37491687209824
C           82.83157602856029       -0.49012693612156       -0.32492617077759
C           84.05482495801071       -0.44788307421200       -0.29655172103550
C           85.39721505586549       -0.40707883971445       -0.27036065009810
C           86.62669612130246       -0.36847955052682       -0.24467422590334
C           87.96464255125211       -0.33535518792129       -0.22103898276555
C           89.19457035554719       -0.31048232108221       -0.20110459228512
C           90.53786722601281       -0.29244741355512       -0.19052694360102
C           91.76195308516239       -0.28520276057597       -0.18434205468785
Cu          59.34981091681700       -0.63931845203599       -0.41875254732352
C           55.90539019172035       -0.59491730594602       -0.38550674504788
C           56.55281542572536        0.11065529304994       -1.41510436630289
C           55.87810336628458        0.83669202001338       -2.44840946738230
C           56.83841682398113        1.36173800861007       -3.25311782334031
C           58.10142587688549        0.96253036767985       -2.70877028344420
N           57.90078613962566        0.20295715445704       -1.59322729650486
C           59.34821196025066        1.31501635736340       -3.24842309165240
C           59.34591342122763        2.09141114950393       -4.42934340340687
C           59.33989501595629        2.74480742632096       -5.45172931239554
C           59.32858455929058        3.50075561475503       -6.64640427550624
C           60.51856929747836        3.89314554775895       -7.27030781468696
C           60.45084538666070        4.62657721434616       -8.44147243621710
N           59.30248037880177        4.98234131323218       -9.01181294440217
C           58.16677979109653        4.61371619621065       -8.42447819839431
C           58.12498965274533        3.87979188059246       -7.25250516234238
C           60.59546997935688        0.95984451745844       -2.71230206876404
C           61.85787149751420        1.35581903895788       -3.26017961631373
C           62.81917928660240        0.82552585524819       -2.45998403012585
N           60.79755594908028        0.19803827307628       -1.59819877909656
C           62.14560112209735        0.10012550324838       -1.42553931056415
C           62.79468095382679       -0.61203698201446       -0.40082986300817
C           62.14648841116217       -1.35272746109837        0.60406026919412
C           62.82100842121960       -2.09781908122293        1.62380542921047
C           61.86039401410024       -2.68325411277392        2.38545117760232
C           60.59747617582178       -2.29194716475026        1.83540676536038
N           60.79858725017124       -1.48416662339231        0.75399346616440
C           59.35067416672653       -2.68285785877204        2.34715048510873
C           59.34949015477761       -3.54641175161915        3.46591168573227
C           59.34436452489624       -4.29841722009634        4.41817795915347
C           59.33444843047512       -5.17820059198708        5.52483942038788
C           58.13160245159082       -5.62502925281478        6.08442880002845
C           58.17481305683499       -6.48964238272880        7.16354920651537
N           59.31122928039247       -6.92321068162168        7.70321363918918
C           60.45890986253353       -6.50274522320071        7.17723206934406
C           60.52520620569189       -5.63876608442161        6.09867038476524
C           58.10342544006990       -2.28627260342646        1.84014852594209
C           56.84091724343551       -2.67140511005406        2.39569908393009
C           55.87992076176916       -2.08045824683411        1.63892022625496
C           56.55370975751335       -1.33873062573773        0.61621059306779
N           57.90181176775548       -1.47747872761558        0.75995069248827
H           54.80740493967354        0.92483435141923       -2.54017366902051
H           56.71219503218526        1.96834173190890       -4.13563334351620
H           61.47588115109434        3.62412632082813       -6.84045604878222
H           61.35835680798088        4.94357627796141       -8.94729497784402
H           57.24823956652867        4.92057983339494       -8.91645525525136
H           57.17739654667253        3.60006238861877       -6.80816313292584
H           61.98287595821356        1.96382282884475       -4.14191971088380
H           63.88985354496287        0.91018074729658       -2.55529798954275
H           63.89178658940445       -2.16126359647020        1.73331126685017
H           61.98621953615964       -3.32139723953293        3.24550748851638
H           57.18345893038543       -5.29716753810010        5.67558050855673
H           57.25685962433953       -6.85237788032805        7.61711990807808
H           61.36704439157142       -6.87612051757488        7.64177167096190
H           61.48199031887448       -5.32204797401931        5.70136739927675
H           56.71549001489173       -3.30950037488234        3.25584064254666
H           54.80931593060851       -2.13860670742348        1.75302160067333
Cu          77.98267202081374       -0.59698042377570       -0.39614307794421
C           74.53761779508088       -0.58861461252536       -0.38574553702106
C           75.18507284111747        0.13007042308464       -1.40694914290397
C           74.50982135282857        0.85471429776581       -2.44083176706354
C           75.46999654614143        1.39389084790978       -3.23643612999167
C           76.73333804337328        1.00429451393905       -2.68615906359585
N           76.53294321103996        0.23689892598724       -1.57559523123460
C           77.97984057977547        1.37130871894555       -3.21605431162945
C           77.98048369554861        2.15392691469230       -4.39285216289612
C           77.98548786590766        2.81322240949056       -5.41149023720217
C           77.99432056619561        3.57620658217730       -6.60169351209439
C           79.19649215743888        3.97050853616158       -7.20081252704715
C           79.15207404553946        4.71187842735970       -8.36801441950766
N           78.01511788089228        5.07352385148946       -8.95724630549946
C           76.86806487845887        4.70296255367420       -8.39368427148584
C           76.80297340584413        3.96131820618448       -7.22754505222826
C           79.22728697626837        1.02601464361731       -2.67330392510474
C           80.48917090449864        1.43843073098200       -3.21033758628248
C           81.45052689662755        0.91577833914136       -2.40528825845082
N           79.42965714313783        0.26133298957555       -1.56155410737811
C           80.77761417792635        0.17810459236219       -1.37908425047308
C           81.42672720492405       -0.53194112018622       -0.35356794463034
C           80.78029651672053       -1.28791985441346        0.64032167821777
C           81.45592461944476       -2.03282027184611        1.65948541744255
C           80.49647326614644       -2.63222071421403        2.41157818131609
C           79.23307058532451       -2.24956198653264        1.85637741197771
N           79.43267336737541       -1.43403931741303        0.78083822456272
C           77.98684807760974       -2.65333859325507        2.36019881360979
C           77.99009632229145       -3.51987307615200        3.47664169645214
C           77.99761688855102       -4.27280920824037        4.42813436696885
C           78.00807503731428       -5.15343560002665        5.53410633150004
C           76.81739619466960       -5.61832550581054        6.10466554561186
C           76.88382852136208       -6.48203871928476        7.18344922565050
N           78.03159340138789       -6.89830982169328        7.71261178046024
C           79.16789900005810       -6.46074443819666        7.17595420259527
C           79.21097302215854       -5.59603360972783        6.09687729516391
C           76.73903579930190       -2.26582914166392        1.84831173063460
C           75.47709071179082       -2.66487802789997        2.39500465412119
C           74.51495787700304       -2.08121030764213        1.63391355234950
C           75.18761703119510       -1.32932052772268        0.61794983382075
N           76.53588545289310       -1.45490110363276        0.76964918905107
H           73.43890457906896        0.93287461413948       -2.53894238618907
H           75.34359843114636        2.00414812758577       -4.11641844318148
H           80.14505675065935        3.69664769767220       -6.75488627349382
H           80.06946920378797        5.03025860866301       -8.85478260303906
H           75.95945708497609        5.01517387038410       -8.90050252627477
H           75.84669214044457        3.68064885339324       -6.80287705306951
H           80.61395901727867        2.05146601565904       -4.08860685856913
H           82.52085181306859        1.01267522232990       -2.49250464398885
H           82.52660590404736       -2.08673826964299        1.77493550806298
H           80.62350979655704       -3.27451191311197        3.26835067535064
H           75.86059451899401       -5.30494602396533        5.70473892289454
H           75.97577550618945       -6.85854449564562        7.64561751354199
H           80.08590404745098       -6.82014901210900        7.63208267897265
H           80.15905884179200       -5.26477679914494        5.69064391046276
H           75.35287956651499       -3.30680334002080        3.25247698246989
H           73.44430613228472       -2.15012700355605        1.74139216171677
