126
 energy: -243.546346968477 gnorm: 0.000324932848 xtb: 6.5.1 (b24c23e)
Zn          17.24585692644426        0.05354929610533       -0.02329241647989
C           13.83352114719293        0.09390888817191       -0.11400465815541
C           14.46687958894492        1.33058070371129       -0.09145620490708
C           13.79621503039917        2.60019447724916       -0.05627244699673
C           14.75765352135717        3.55638266756775       -0.02588586132992
C           16.02886083088548        2.88226649842583       -0.05549165963117
N           15.81680985739391        1.53461387937613       -0.08477092724871
C           17.28243955884655        3.50407906207906       -0.04250794700964
C           17.30675684053964        4.98919704108112       -0.01709852543348
C           16.75276071129923        5.72550194533214       -1.06420805156160
C           16.77938750488666        7.11494347525432       -1.02977272678558
O           16.25151817549422        7.84107433130017       -2.04617433448499
C           17.35384311485443        7.77326208675601        0.05853655525227
O           17.36120520396703        9.14417842412185        0.06752522839479
C           17.90499032936828        7.03824442960294        1.10482433297643
O           18.44758384834613        7.75350270551849        2.14049174295288
C           17.88752073615744        5.64975005903669        1.06922681649573
C           18.51926154227704        2.84846477891337       -0.04417378967846
C           19.79608561207729        3.50002624871863       -0.12875618536649
C           20.74191093326692        2.52670876912598       -0.11372116064129
N           18.71497462601363        1.49406957221747        0.00774155475860
C           20.05805690340172        1.27188471452994       -0.01720439202381
C           20.69228758932189        0.01374027990251        0.04779560634209
C           20.02867152743159       -1.22966460566697        0.09808979018603
C           20.68299521279599       -2.50228143139952        0.16523810764738
C           19.71544817992239       -3.45364996636545        0.14913627349942
C           18.45353151955828       -2.77087035369452        0.08798219666389
N           18.68101718211751       -1.42017967037456        0.05940657106133
C           17.20250722328085       -3.39464120961847        0.02765197698696
C           17.18209744143631       -4.88105720317989        0.03630769979026
C           17.64835716423789       -5.58761603132911        1.14465395584504
C           17.62540395570755       -6.97754947044462        1.14538323495748
O           18.06997765937894       -7.67517372729620        2.22006637024917
C           17.14142973563001       -7.66601348791123        0.03207634756099
O           17.13509875041320       -9.03687910230939        0.05954766719871
C           16.67771512015025       -6.96046902618345       -1.07494016914323
O           16.22085195235216       -7.70433170958744       -2.13193605872610
C           16.69229122630505       -5.57122894094892       -1.07561856364551
C           15.96602784497754       -2.74287310682109       -0.04517098609577
C           14.68017302963406       -3.38893987359962       -0.05371427757880
C           13.74044669847202       -2.41133900226983       -0.09422733802614
C           14.43925696747340       -1.15684781688043       -0.10352143592484
N           15.78403738025190       -1.39102843146071       -0.07323053987674
H           12.74801861238071        0.10591765127423       -0.12739434003034
H           12.72534856927999        2.73081360487092       -0.04802511748189
H           14.62269447158613        4.62507755161563        0.02148384642634
H           16.31706855125822        5.22569178095853       -1.91969571067375
H           16.36764846937848        8.78294672868871       -1.83862210574141
H           17.79197105763999        9.43374235545070        0.88751145303252
H           18.81075595995408        7.16187471913559        2.81250892879198
H           18.30769318402534        5.08347860197742        1.89224463507636
H           19.94837158146638        4.56425342744062       -0.21009341198765
H           21.81062839821546        2.64495805470976       -0.17688339981082
H           21.74895348721028       -2.64695465799986        0.21997024201143
H           19.84500021948348       -4.52364343318960        0.17002294337153
H           18.01407844911520       -5.06376217671378        2.01832190823550
H           17.97007219646986       -8.62244086316281        2.02927114413943
H           16.77355697405677       -9.34952162493338       -0.78495871194606
H           15.92469238420498       -7.13137937475069       -2.85124642110125
H           16.34099392654029       -5.02834112495681       -1.94535271300806
H           14.52106475411754       -4.45496497980344       -0.01832319216379
H           12.66698708905900       -2.51850646788381       -0.10797411444632
Zn          28.17966344931370       -0.05056421620039       -0.02919760369975
C           31.59199888875311       -0.08022340386162       -0.12395227100518
C           30.95869202659962       -1.31150949160757       -0.24170627056321
C           31.62941258834338       -2.57689786058186       -0.35067084530143
C           30.66801677823669       -3.53041325767342       -0.42882962120065
C           29.39677889304399       -2.85734428636020       -0.38182100214179
N           29.60877050563067       -1.51504694569215       -0.25817377677603
C           28.14322861597866       -3.47668222386503       -0.43937911428000
C           28.11898644508764       -4.95510961026707       -0.58247496736880
C           28.67301000388987       -5.56794582038921       -1.70630119412326
C           28.64646303013160       -6.95233701041642       -1.82958300032326
O           29.17436254517467       -7.55854654391123       -2.92174432883974
C           28.07205849838104       -7.72980745099682       -0.82290584163031
O           28.06477574147907       -9.09290749391527       -0.96936990939929
C           27.52088255192544       -7.11815702413517        0.29995710932704
O           26.97834235847756       -7.94623104395068        1.24787735969789
C           27.53827330032225       -5.73457554970811        0.42197740968412
C           26.90637550365460       -2.82516518198939       -0.36670048286448
C           25.62957691753136       -3.46300112128453       -0.52455685379986
C           24.68370916854391       -2.49770210145156       -0.39929036804732
N           26.71060461146943       -1.48539028230851       -0.16161270581795
C           25.36751204107578       -1.26187247475651       -0.16118311111598
C           24.73323277630950       -0.01922873234885        0.04600104181171
C           25.39680041783572        1.21048754250967        0.23691711473175
C           24.74242331800927        2.46726118812788        0.44789363299210
C           25.70992824505677        3.41436672649699        0.53973195293448
C           26.97187264319243        2.74297994939483        0.40154197403073
N           26.74444553225062        1.40422351248514        0.22004586879265
C           28.22286658033526        3.36963019012082        0.41227989660119
C           28.24320601979575        4.84548837503098        0.58934410301747
C           27.77692235622426        5.42186324075604        1.77062597638301
C           27.79979922712421        6.80276113622125        1.92886768156519
O           27.35519921445346        7.37407531929965        3.07568952413751
C           28.28372254466497        7.61298513152146        0.90075218896152
O           28.28997715997658        8.97190644631378        1.08340157557301
C           28.74746424305196        7.03746699819987       -0.27909207859972
O           29.20427396305212        7.89634949841946       -1.24498105884597
C           28.73296284425570        5.65725326465199       -0.43720540220273
C           29.45937335167323        2.73037597468355        0.26602482308639
C           30.74519959081609        3.37330674477354        0.33074576669967
C           31.68496735301520        2.40664371774332        0.17965270117108
C           30.98621144322052        1.16125742449946        0.02824636349953
N           29.64142173244170        1.39043371278952        0.08490629257444
H           32.67750113706527       -0.09058812892874       -0.13865413553928
H           32.70028494347856       -2.70756037906614       -0.35729975316229
H           30.80302445530474       -4.59758465167407       -0.50288651809766
H           29.10866380297623       -4.97436111441444       -2.49962331027911
H           29.05829073670103       -8.51788178789905       -2.82229086719450
H           27.63403356605789       -9.47357669282741       -0.18749012504874
H           26.61515309059358       -7.43461093959343        1.98263117732751
H           27.11808116786755       -5.26526858882700        1.30388218666879
H           25.47733536412630       -4.51116029268297       -0.72597966595172
H           23.61499354102743       -2.60808130634815       -0.47541044146888
H           23.67646143366312        2.60474784222174        0.51870706734664
H           25.58032812044220        4.47508862652374        0.68178310739040
H           27.41124049749829        4.80235359458536        2.57930098654829
H           27.45505055884759        8.33686781507723        2.99347446578282
H           28.65149304652103        9.37825965594902        0.27976459263179
H           29.50045911849064        7.40862236432908       -2.02458922131358
H           29.08427683296425        5.21644726046978       -1.36286342398747
H           30.90426178756816        4.42845627219248        0.48674772996325
H           32.75842180033472        2.51472869363452        0.17811880310136
C           22.10360018198551       -0.00040345781929        0.05195184392184
C           23.32191955689727       -0.00568369055428        0.05168171725694
