126
 energy: -238.644917758140 gnorm: 0.000335212970 xtb: 6.5.1 (b24c23e)
Co          17.06322236727962        0.01324004069005        0.05390888582781
C           13.69289056629028        0.00534135007331        0.21655277477859
C           14.34140894986501        1.21416932119625        0.07900192951301
C           13.67310835094606        2.47299415509648       -0.05314439662028
C           14.62938288155637        3.42902077786579        0.01003640190139
C           15.87913943606427        2.75262134015124        0.20248956051351
N           15.69806046973881        1.39315838540107        0.17703102290862
C           17.07338352166360        3.38818229439245        0.51332643349610
C           17.08489568349025        4.85888199354816        0.68903009167706
C           16.28931973852848        5.46390083296017        1.65782945485434
C           16.30615617962334        6.84831648540996        1.82244290042208
C           15.43948299145781        7.43356139635576        2.87670716360839
O           15.53637928128308        8.76745465859657        2.96996631215403
O           14.71115504544798        6.79307528651388        3.59053073580799
C           17.11946621202731        7.63928595341200        1.01115280159094
C           17.91102250937310        7.03917806434294        0.04434360139345
C           17.89808039299554        5.66092900138273       -0.11556204918717
C           18.25695085903586        2.68361515215208        0.67964016976942
C           19.49450390045822        3.27514286307426        1.09042433897627
C           20.44316014343911        2.31448196210837        0.97640293833698
N           18.43657298240700        1.35251723789370        0.38341611521311
C           19.78303974109028        1.14107034568957        0.49847552546107
C           20.45648552044759       -0.00525490744470        0.07365504596887
C           19.77339946010634       -1.13660613208447       -0.37779892973510
C           20.41891459877677       -2.29208332234186       -0.91425058120710
C           19.45631909080958       -3.23015840467407       -1.08844779203864
C           18.22731828698779       -2.64784190831216       -0.64050879628846
N           18.42604302309437       -1.33812757482674       -0.26803661784602
C           17.04294506440145       -3.35123304802703       -0.47639377916486
C           17.02750528711891       -4.80919512770811       -0.73731495269342
C           17.86953593562408       -5.66631611284286       -0.02497577129689
C           17.85458368415286       -7.03308878108832       -0.26558442004817
C           17.00276609845213       -7.56079991549115       -1.22143283974476
C           16.15677004368145       -6.71469206086428       -1.94011508110637
C           15.25920004896060       -7.31942611199769       -2.95655835580585
O           14.47386314316655       -6.42801275399466       -3.57783587342998
O           15.22101138691412       -8.49520960319282       -3.21459492984058
C           16.16869585070391       -5.34302964325830       -1.69607318910701
C           15.87221460398759       -2.72912996121247       -0.06308448704318
C           14.64157821685347       -3.41684543356525        0.19923437777083
C           13.69888754466872       -2.46754046257987        0.40530379457060
C           14.35482542120034       -1.20211611295795        0.27274700718895
N           15.69916949531654       -1.37377826174629        0.05319412312769
H           12.61058961286497        0.00317014496498        0.26781921680602
H           12.60799191620498        2.58929217865483       -0.17450994837528
H           14.51244869532111        4.49840429863367       -0.05792862403501
H           15.66116578338541        4.86389499924138        2.30715113906326
H           14.94493907195008        9.07164545484925        3.67750537843148
H           17.12889652917562        8.71496368227992        1.13857377720348
H           18.54313428919753        7.64822507813863       -0.59191302802159
H           18.51170892491493        5.19847321333331       -0.88061443842918
H           19.61038750521615        4.29364371271943        1.42358773829386
H           21.49846221538209        2.38126141235569        1.18623087878086
H           21.47357675432892       -2.36200922234600       -1.12653619994181
H           19.55891025198320       -4.22783791256877       -1.48326936348846
H           18.52721819446190       -5.25685297082468        0.73356285896884
H           18.51029893000768       -7.68647252431442        0.29854083695236
H           16.97902621210473       -8.62583517852801       -1.42273587340886
H           13.92171734310232       -6.89987013071049       -4.22234389011493
H           15.52034921951047       -4.68691342107473       -2.26467238825312
H           14.52813011409277       -4.48860489578298        0.21951352574252
H           12.64860228350737       -2.59183138048687        0.61556966863457
Co          27.87966715704063       -0.03013849887434        0.04681281751777
C           31.24996774362075       -0.07567835498633        0.20270349927647
C           30.60141913147407       -1.17346983194262       -0.32170318064872
C           31.26967526352769       -2.32028418056480       -0.85741477601289
C           30.31339997521714       -3.24467883753234       -1.10936621555367
C           29.06368459384927       -2.66810562046422       -0.70660727963700
N           29.24476954845290       -1.37464075550345       -0.28739237881018
C           27.86948013656986       -3.37032893804940       -0.61985227990004
C           27.85792706345897       -4.81791581137221       -0.93344467648960
C           28.65349331365928       -5.70584441428716       -0.21495705243539
C           28.63659608856479       -7.06824990890323       -0.51085123424592
C           29.50320305225992       -7.96531170199525        0.29482001760998
O           29.40682716456087       -9.25666524109316       -0.05238148626221
O           30.23133910801634       -7.59281890863637        1.17874085368536
C           27.82326081804458       -7.55135069228766       -1.53576883904319
C           27.03174410801105       -6.66871670222840       -2.25398141411470
C           27.04472500121742       -5.31367033953532       -1.95561429319512
C           26.68596242739935       -2.75853819733924       -0.23269100853142
C           25.44842433605745       -3.45168387507187       -0.03716875116752
C           24.49978605248894       -2.50635548840273        0.16841256033226
N           26.50632782068664       -1.40359350070477       -0.07878342992934
C           25.15989152365211       -1.24123048958759        0.09918985625315
C           24.48644476168203       -0.01903479408793        0.07143401966743
C           25.16952869469040        1.19769359343743        0.01357162716651
C           24.52404386246611        2.46496239266576       -0.11676287954588
C           25.48663889786538        3.40854411720133        0.02459115978028
C           26.71562187304071        2.71196214351084        0.25817989338191
N           26.51689955146053        1.35239616561841        0.18295263643935
C           27.89996888541497        3.32331485965083        0.64288283190454
C           27.91543049492769        4.78664730848185        0.87179552394599
C           27.07332520851429        5.36456024202985        1.82467156175054
C           27.08826674712291        6.73506559206828        2.04301893879907
C           27.94013287349528        7.54568193853709        1.31162374596354
C           28.78621569527611        6.98025058344918        0.35634959659948
C           29.68388109702816        7.88344376629393       -0.40716261980193
O           30.46917392548962        7.24344271625634       -1.28525964096504
O           29.72201064003907        9.07909135678809       -0.26761313061523
C           28.77430379083550        5.60400053645516        0.13965847906742
C           29.07066861982513        2.60037828958854        0.83069695368190
C           30.30131016593283        3.16484517992250        1.30305928077341
C           31.24401196417172        2.20027640187859        1.18801754530687
C           30.58806126554063        1.04734711873516        0.64986596994497
N           29.24373532334733        1.28129801460496        0.49824436963178
H           32.33228057857222       -0.09030643633467        0.25169158812880
H           32.33477335622246       -2.39060118652040       -1.01021940483631
H           30.43031818193133       -4.23341533740001       -1.52241093422002
H           29.28164468293743       -5.35043367390316        0.59455310415246
H           29.99847936005568       -9.77477495271949        0.51722663467404
H           27.81385009214152       -8.60977504374928       -1.76611213822170
H           26.39963578650710       -7.03690235695544       -3.05411133199333
H           26.43112018627363       -4.62697050600215       -2.52801117399837
H           25.33254200536389       -4.52315570185548       -0.05429109166565
H           23.44450778722924       -2.63791770306104        0.34514295899223
H           23.46938997940918        2.60031860339937       -0.29466844352607
H           25.38405376155263        4.48044009272485       -0.02320217328326
H           26.41557581672902        4.73008712762377        2.40810774599573
H           26.43248937072956        7.16872345020107        2.78934830117011
H           27.96386811116363        8.61813101536786        1.46871256576268
H           31.02129345464003        7.89972553208175       -1.74061461147558
H           29.42270587218609        5.16922500902241       -0.61179990135027
H           30.41475191392794        4.17130853627374        1.67200238083278
H           32.29429759222133        2.24915990863073        1.42733315368193
C           21.86321491774060       -0.01204100120757        0.07819082799927
C           23.07971368135829       -0.01412345634846        0.07795085430228
