181
 energy: -328.955277254936 gnorm: 0.000801277303 xtb: 6.5.1 (b24c23e)
Ni          33.78855930147515        0.03497817968494        0.03523780710441
C           30.39712219333977        0.04741786199242        0.15279302226990
C           31.05212349316184        1.25919119665123        0.22336018212708
C           30.37913498719491        2.51936027664122        0.30683489649876
C           31.33907450850654        3.46352194336005        0.44395723458546
C           32.59755428198115        2.77640120342241        0.46048626711590
N           32.41285923887596        1.42798050087770        0.28567509805681
C           33.81908620926423        3.40008244920875        0.67993148083319
C           33.83449660564175        4.85689462532258        0.95097631465948
C           33.18895903210391        5.37530054676274        2.07573116054916
C           33.20120375826673        6.73499262133895        2.33026135022841
C           33.85759276010229        7.60573663860450        1.45538440897177
C           33.86689569940704        9.00628495806477        1.71076412477648
N           33.87317196776199       10.13841286228656        1.91623963488235
C           34.50415811719652        7.09154411766613        0.32754394496280
C           34.49381492140121        5.73000948288820        0.08298276321918
C           35.02628874207792        2.71402481563423        0.66324750692453
C           36.28946678348302        3.31921856425825        0.95896148151497
C           37.23348135583124        2.36631424139334        0.76935107740892
N           35.19298153004241        1.38834552723839        0.33295651747306
C           36.54500665571080        1.18235613984742        0.36411617585974
C           37.20133652570500        0.01081004264818       -0.02293352851059
C           36.51585155936947       -1.14629140482468       -0.40268556310474
C           37.17255742146600       -2.33085970270872       -0.85562979174825
C           36.20747361312910       -3.26291678360465       -1.04296864723982
C           34.96416506731791       -2.64726262183180       -0.68977614293663
N           35.16222986197270       -1.33205744467536       -0.33483881351755
C           33.74872987628819       -3.31867170446384       -0.66598311547429
C           33.73114032403323       -4.76860966684399       -0.97023489757338
C           33.00761791280301       -5.25507132852295       -2.06138008080988
C           32.98868084591282       -6.60853040578006       -2.34683889178526
C           33.69229020245221       -7.50540064368197       -1.53750325980650
C           33.67159168912250       -8.89938285497631       -1.82577612066288
N           33.65500024788842      -10.02619981514292       -2.05811846832624
C           34.41581362428898       -7.02361131348220       -0.44260121871526
C           34.43515752391306       -5.66826752249123       -0.16659536996543
C           32.54880070728167       -2.68895363467105       -0.35981455856874
C           31.28910458007957       -3.36776205702020       -0.26736034467341
C           30.35007883756636       -2.42131730309830       -0.03460126556331
C           31.03721331613690       -1.16738414650035        0.02377217712843
N           32.38838665372334       -1.34368624530330       -0.14303767029923
H           29.31422306758884        0.05058348439199        0.19443766601490
H           29.30908284155525        2.64469035154293        0.26169466021067
H           31.21942959497483        4.53162624449096        0.52521778429929
H           32.68780800863053        4.70164837781836        2.76160547711942
H           32.70320853538078        7.12987028035698        3.20804016732833
H           35.01144738877647        7.76412882601913       -0.35415031718835
H           34.98728721802775        5.33526373423016       -0.79794714357659
H           36.42512163546564        4.33995513563945        1.27703783932185
H           38.30232140438666        2.44353268025983        0.88654378846631
H           38.23593971838459       -2.42150016213226       -1.00772770384272
H           36.31733655467082       -4.27633898280308       -1.39277384209748
H           32.46959504754258       -4.56127536750872       -2.69742845760790
H           32.42965222090712       -6.97831993907862       -3.19839329089822
H           34.95933856208804       -7.71637735971510        0.18909777390325
H           34.98747259208055       -5.29929142361960        0.69023889287350
H           31.15461947445381       -4.43277380966684       -0.36439356173384
H           29.28544115957124       -2.54082195408389        0.08794126778986
Ni          60.66276498157276        0.00363192248797        0.06190051690183
C           64.05528519956233       -0.00263458254834        0.17648042761959
C           63.40049900634208       -1.20762509701076        0.32229571261225
C           64.07539483240522       -2.45909663320625        0.48448438989361
C           63.11626727269124       -3.39636674782056        0.66601644142102
C           61.85615890279396       -2.71288684865134        0.63009542753856
N           62.03959305743122       -1.37532992625741        0.38424973118168
C           60.63359608666757       -3.33065148785916        0.85863642121422
C           60.61750623694766       -4.77343882483084        1.19736304345678
C           61.23850966751271       -5.23549329459136        2.35980315409690
C           61.22069337928916       -6.58115311846696        2.68017568555283
C           60.58316217688151       -7.49427660316836        1.83509050178222
C           60.56516300745798       -8.88024637969833        2.16000289100365
N           60.54926501850341      -10.00038326875897        2.42249404272549
C           59.96281372410761       -7.03680890128124        0.66878338810556
C           59.97882057645724       -5.68888212945571        0.35808642556299
C           59.42429642737348       -2.65137886128722        0.79193471135186
C           58.15944717857758       -3.25076952585533        1.09322671877161
C           57.21514288658087       -2.30761964420044        0.86302175653756
N           59.25799514059322       -1.33889541643564        0.41340784278836
C           57.90491990028524       -1.13486767431449        0.42788458051379
C           57.24901942289270        0.02757700426708        0.01753478727985
C           57.93129846802461        1.17462917165529       -0.39313905682603
C           57.27001725332541        2.34497960440415       -0.87603619486060
C           58.23477910464022        3.26365668720081       -1.12010359140392
C           59.48274844358295        2.65561346256186       -0.76930282414670
N           59.28687901990484        1.35750861822108       -0.35597270613918
C           60.70174810936974        3.31959187335837       -0.80764046933242
C           60.72008635396735        4.74999338140582       -1.19447632112790
C           61.41379005061186        5.16551472794827       -2.33322624431213
C           61.42992177286499        6.49918578515244       -2.70036934454925
C           60.75367729947359        7.44718736862984       -1.92671799520311
C           60.77067391654621        8.82078869389287       -2.30066279359545
N           60.78571834717395        9.93072884335288       -2.60350425867276
C           60.06170495131096        7.03679787328961       -0.78349185598670
C           60.04495054221601        5.70060258395954       -0.42565177545735
C           61.90444878591829        2.70112590204744       -0.49081936410795
C           63.16688577863618        3.38031816679868       -0.45514521967221
C           64.10570649482388        2.44760107988212       -0.17231312674218
C           63.41602088623220        1.20182020784809       -0.02922328166686
N           62.06387027238499        1.37069464979547       -0.19579977993628
H           65.13821537469491       -0.00359030434641        0.21754728402643
H           65.14608034135799       -2.58393981411984        0.45606730062652
H           63.23720732860840       -4.45779040152827        0.80919724161667
H           61.72410917727416       -4.52854756641024        3.02295121191903
H           61.69897769861075       -6.93208484588042        3.58709351517509
H           59.47068388742512       -7.74238859889101        0.00975016556892
H           59.50509203343443       -5.33820460088174       -0.55183740629511
H           58.02298225224252       -4.26081950768381        1.44335759974331
H           56.14542599103617       -2.38367636110229        0.97246303778297
H           56.20412364501276        2.43477270907188       -1.00981775033157
H           58.12174969913114        4.26300748259154       -1.50728674888970
H           61.93014847724216        4.43138103064061       -2.94136664096782
H           61.96494878934442        6.81367323707046       -3.58876741316033
H           59.53999959467035        7.76947979466622       -0.17905990458713
H           59.51677951185901        5.38717358754970        0.46771627375780
H           63.30252730027090        4.43684361203918       -0.61986554565021
H           65.17173298590919        2.57123511557909       -0.06716363919039
C           39.82855631166374       -0.01019483278822       -0.04556588784321
C           38.60707972083161       -0.00027316502111       -0.03764357981109
C           41.17909984069442       -0.01126769239103       -0.05252378289381
C           42.40070128239407       -0.00604334033585       -0.05519337642007
C           53.26826282777392        0.04698106028761       -0.01152648539501
C           52.04735227586977        0.04355036413162       -0.01899797041049
C           54.62032100519792        0.04484052384141       -0.00145623665116
C           55.84111916523069        0.03851871958196        0.00667354154718
Ni          47.22335451182940        0.02169590881534       -0.04672209083968
C           43.80608760320600        0.00179870052254       -0.05564434760545
C           44.48622881482853       -1.18258456648457       -0.35241714761792
C           43.82361672393850       -2.41786034193584       -0.62482614928083
C           44.78465938750413       -3.30395066850711       -0.98134196830628
C           46.03111185750186       -2.60237113753045       -0.93339386590694
N           45.83955593316107       -1.30799391654052       -0.50666886950214
C           47.24516655235701       -3.15413223537678       -1.32035241751622
C           47.25417021435154       -4.52838028155600       -1.87457335312736
C           46.56212973558812       -4.82060103921430       -3.05195493442042
C           46.57172389106783       -6.10131695412999       -3.57475075116582
C           47.27172252825142       -7.11972069585472       -2.92106657872722
C           47.28104250800971       -8.43969830250428       -3.45441499127739
N           47.28875115397147       -9.50647671526887       -3.88566943668777
C           47.96265768226979       -6.83280904947927       -1.74008297809068
C           47.95482312295610       -5.54821311347859       -1.22684740699291
C           48.45136265679977       -2.47503355828212       -1.20930946986398
C           49.70732032450504       -3.00287375105340       -1.64800365491102
C           50.65652010060297       -2.10849414245920       -1.28107791400700
N           48.62519215278507       -1.24376537625140       -0.62003080359842
C           49.97712394012902       -1.03384552886271       -0.63061646054763
C           50.64004359817259        0.03813974160253       -0.02840976028842
C           49.96014256522977        1.10396518506594        0.56559478468827
C           50.62194770271896        2.18463139155661        1.22406769243537
C           49.66040339040702        3.07055257036039        1.57918732277645
C           48.41462854142179        2.53178028656046        1.12492704539788
N           48.60655318485579        1.30167883266175        0.53882238277393
C           47.20113370554834        3.20055207954156        1.21988331600424
C           47.19145128679686        4.57542844324844        1.77186958684072
C           46.47372542098611        4.86562344358212        2.93438505798191
C           46.46660536468364        6.14669726356699        3.45621712005175
C           47.17608437503079        7.16766198849323        2.81697968496457
C           47.16825001597963        8.48771318857477        3.35012247916374
N           47.16138165076918        9.55575015707852        3.77842287689225
C           47.89304657266477        6.88292452287170        1.65105165527452
C           47.90102365607400        5.59812677911241        1.13832868577055
C           45.99655671088723        2.63565887903344        0.82194319295736
C           44.74229663215596        3.32398940454267        0.85642797944333
C           43.79320367696734        2.42463489652102        0.50095540861453
C           44.47107114304852        1.19521697536283        0.24022750233915
N           45.82197816575243        1.33697082121862        0.40093530857319
H           42.75916064733187       -2.57113834319324       -0.55042462562884
H           44.67019176117160       -4.34146871137507       -1.24950140764104
H           46.02687732795338       -4.03065325750885       -3.56659324776835
H           46.03824530101254       -6.31956397086698       -4.49244876991392
H           48.50293627053163       -7.62086580973593       -1.22875451326681
H           48.48310762824196       -5.33108727093126       -0.30536669138481
H           49.83583437836014       -3.93573922594696       -2.17210916318628
H           51.72301257660070       -2.15777157187238       -1.43014978610937
H           51.68606558562805        2.24337273181589        1.38612043980134
H           49.77453046882569        4.00406597683738        2.10542432640126
H           45.93169471214362        4.07373162278236        3.43882072836075
H           45.91284872569491        6.36320928403976        4.36223155540420
H           48.44119772448884        7.67276655846705        1.15098335904717
H           48.44912299234079        5.38304510442274        0.22800365461956
H           44.61452653225819        4.36227853515822        1.11540609414113
H           42.72763760212792        2.56580110233005        0.41894823876504
