223
 energy: -396.467275394728 gnorm: 0.000343707314 xtb: 6.5.1 (b24c23e)
Cu          31.14260806493646        0.10462271507578       -0.04501134011778
C           27.73567446694942        0.19228213163921       -0.11318619229031
C           28.36447698195702        1.03856900203190        0.78820529856778
C           27.68407474698095        1.92029747634538        1.69418044705443
C           28.63880377852233        2.55994757886209        2.41413751946491
C           29.91143879960953        2.07932212590109        1.95029895327378
N           29.71334833877416        1.15756312346724        0.96291850318799
C           31.15037476867903        2.47695127649555        2.45348997204151
C           32.38515068828386        1.99286384757255        2.02297191719827
C           33.65738063756891        2.43355595191931        2.52031398935492
C           34.61073425967844        1.75397319848551        1.83435324261602
N           32.58382068487602        1.05448130408905        1.04509235469747
C           33.92864681141325        0.89577918497190        0.91148445803276
C           34.57239322487818        0.03824393287717        0.00293806886102
C           33.92148028838456       -0.80242238203784       -0.91619863352932
C           34.59531209801720       -1.69976014889295       -1.80734524201757
C           33.63577785121057       -2.35590318074573       -2.50729508841127
C           32.36814692018268       -1.85757802095520       -2.05451942618998
C           31.12771691286166       -2.29434781082174       -2.51835456164086
C           31.12102892478868       -3.34751279566805       -3.57400715007122
C           31.54755610074656       -3.05450083189123       -4.87591501053839
O           31.94070366177566       -1.77198906191955       -5.09772675602928
C           32.41341337694629       -1.37847950246560       -6.36986449549195
C           31.54317313723208       -4.04330868235780       -5.85937798754840
C           31.11669039736493       -5.32247031598940       -5.53586845856304
C           30.69145357711967       -5.63653527305283       -4.25393026368025
C           30.69145987879581       -4.64651128650510       -3.27182346981925
O           30.30111866817800       -4.85907703150089       -1.98677047249447
C           29.84885488464572       -6.13375142980220       -1.57792333635818
C           29.89203108508990       -1.82658196497796       -2.06983005719409
C           28.61578717838946       -2.24511445648199       -2.58156247188294
C           27.66763250488975       -1.54499602090050       -1.91087630400864
C           28.35589977628937       -0.69044140699189       -0.98508336483082
N           29.70266229568140       -0.88247781089571       -1.10210707832700
N           32.57574610756613       -0.91214398098007       -1.08520702617613
C           31.15622879272609        3.50339075677980        3.53530435865203
C           31.50854497993628        3.15094900240452        4.84468260726361
O           31.81759341858841        1.84203080520989        5.04402555417699
C           32.19988906600298        1.38387194615162        6.32478096215162
C           31.51854022833831        4.11144377762790        5.85566039585829
C           31.18012009945850        5.42149093695894        5.55204331171284
C           30.82831369681363        5.79389610786392        4.26351531230553
C           30.81401170625409        4.83228804833345        3.25352069622800
O           30.48974448384094        5.10080516057061        1.96062476048900
C           30.14179204290907        6.41285489198245        1.56806001178299
H           26.65094423674389        0.22114420101144       -0.13609726341910
H           26.61210757335620        2.02176044751047        1.76317628626455
H           28.50336024604903        3.29234428053299        3.19390693515319
H           33.79638047613621        3.17241827489269        3.29305796034875
H           35.68244980000046        1.82274252185779        1.93333252189351
H           35.66591104971269       -1.81074989649308       -1.87517264081267
H           33.76788635565661       -3.11293615495796       -3.26340611192617
H           31.63991960908034       -1.49170776538136       -7.13927840410286
H           32.67954762726018       -0.32345361573443       -6.28217084938299
H           33.30214328046553       -1.95064527563026       -6.66277304310992
H           31.86725622887401       -3.82596684141898       -6.86835215894351
H           31.11576374903394       -6.09212875376677       -6.29993435531405
H           30.36617366376175       -6.64348800438596       -4.02910561366317
H           29.59422950286836       -6.04109297056948       -0.52045320822658
H           28.95700343515177       -6.44226342751212       -2.13697228479129
H           30.63051180324002       -6.89433867587526       -1.69444865152362
H           28.47371560848945       -2.97913573900433       -3.35862798188996
H           26.59560251612528       -1.58963012654820       -2.02459335761695
H           32.40383846242013        0.31688861837607        6.21733308616003
H           31.39690034778283        1.52463060665846        7.05858822791654
H           33.10649420142277        1.88973281265177        6.67845319719883
H           31.78640468994880        3.84871686325577        6.87030277722457
H           31.19056866354364        6.16918791448963        6.33755071526863
H           30.56992907657116        6.82355588245691        4.05523174058467
H           30.96544573674539        7.11604303203779        1.74162192901279
H           29.93172143307531        6.36430198073341        0.49792713292963
H           29.24681088020075        6.76620596731454        2.09463587561365
Cu          58.09316883252744       -0.00610588383358       -0.09173142478914
C           61.49494368092995        0.16434568256524       -0.22392073582651
C           60.86930472311057       -0.59970012769018       -1.19805104682494
C           61.55176173091458       -1.32902798670495       -2.22931237047197
C           60.60018197819781       -1.95085828706490       -2.96876847757112
C           59.32711581607931       -1.60065506261517       -2.40095631030275
N           59.52221558752221       -0.78173555407069       -1.32611684624323
C           58.09034693173238       -2.04469956053876       -2.86971115536767
C           56.85537999196185       -1.71951169819555       -2.30957795145938
C           55.58428663262319       -2.14046512375023       -2.82642787997361
C           54.63010368152327       -1.60080706040624       -2.02660465691955
N           56.65519737324009       -0.93182864017477       -1.20693092486860
C           55.31064190195707       -0.84663935891494       -1.01602242806018
C           54.66625425663090       -0.14008831908545        0.01413084418475
C           55.31648418136736        0.60173761763482        1.01557579052626
C           54.64358499772269        1.29001741945669        2.07702346923769
C           55.60116759970163        1.89150214425377        2.82714725971760
C           56.86612307073654        1.58000659665701        2.22486786183731
C           58.10345755346258        2.01150098104894        2.70130016532658
C           58.10523613990443        2.88785881405401        3.90794376396448
C           57.63853686796315        4.20640127194053        3.82638873603932
O           57.21387562044328        4.61111925617498        2.59997847951954
C           56.70396444394309        5.91574338545569        2.41372022262600
C           57.63692832283154        5.02539859626000        4.95514121093390
C           58.09786075158763        4.52102042472214        6.16177713293793
C           58.56352051693965        3.21909525425530        6.26688656753363
C           58.56936611395027        2.40167622637585        5.13697822506764
O           58.99873393855506        1.11144296647987        5.14117485684535
C           59.48051648908499        0.52215094023913        6.33157930608526
C           59.33812512503989        1.69259070094453        2.13545033279157
C           60.60996988480283        2.16802161343900        2.60656038861196
C           61.55797673590366        1.65231184023685        1.78532749728694
C           60.87365125547554        0.86067089138921        0.80240524132753
N           59.52948685041164        0.90300917765223        1.03820053120218
N           56.65967331177360        0.78804904488931        1.12641067397954
C           58.08663190687864       -2.93334470203444       -4.06720412652365
C           57.74480317802724       -4.28649421147370       -3.94338855463190
O           57.44334848039344       -4.71002174788673       -2.68717433552518
C           57.06917909298140       -6.05273204120847       -2.45518727331782
C           57.73756433461477       -5.11798430460358       -5.06288657939355
C           58.06798352396453       -4.59196565425107       -6.30262109231247
C           58.40905322305741       -3.25602581005267       -6.44979744398500
C           58.42072849063763       -2.42565717427550       -5.32940315008236
O           58.73452644690092       -1.10330042008964       -5.37387346888386
C           59.08017491844035       -0.49111261917342       -6.59955006188397
H           62.57794794714533        0.22091288311013       -0.26755483458722
H           62.62296622212236       -1.35662199823866       -2.35554703507385
H           60.73818655957350       -2.59220719315740       -3.82455845758318
H           55.44647682875495       -2.76566392458795       -3.69389971995878
H           53.55885652855857       -1.69783193340978       -2.10485609335419
H           53.57509769536060        1.30121248318382        2.22299630400456
H           55.46964894044360        2.49320401519063        3.71203688060777
H           57.46146557653680        6.67861332660932        2.63139745714542
H           56.41948315665051        5.98348600413147        1.36200790601600
H           55.81997099574681        6.09454564429663        3.03785285064555
H           57.28173059400913        6.04583359732556        4.90174077635777
H           58.09414588056993        5.15704699737104        7.04020464248479
H           58.91557791686417        2.85163969344361        7.22152595323701
H           59.75925120982211       -0.50112868423243        6.07301318869957
H           60.36317134437711        1.04996132389072        6.71296666250087
H           58.70803659291322        0.49889872421878        7.10992239152753
H           60.74930400797851        2.81562658329601        3.45745181897932
H           62.62732635925001        1.79005444099828        1.82644282302519
H           56.86734169391228       -6.13134415200563       -1.38529021391917
H           57.87579304473749       -6.74695490875560       -2.72105384704131
H           56.16311603836082       -6.31953654487426       -3.01272399093051
H           57.47814844347868       -6.16469138113912       -4.97700762593098
H           58.05981406886561       -5.23790194603702       -7.17375129678438
H           58.66118130657846       -2.87240495544447       -7.42938244160441
H           58.25718758939215       -0.54602881759287       -7.32253340396007
H           59.28525214436947        0.55603317234710       -6.36910746052986
H           59.97753202627539       -0.94554735300887       -7.03701067303545
C           37.20195299574679        0.00566807027145        0.02449827718880
C           35.98059451539112        0.01840829832969        0.01604490258337
C           38.55353883668901       -0.00740048706318        0.03207062924622
C           39.77502688925055       -0.01727839404788        0.03756836550115
C           50.68629153315042       -0.17262572253993        0.05881402462155
C           49.46467927633204       -0.15717508621638        0.05981143116926
C           52.03746829017248       -0.17475495532979        0.05248411777831
C           53.25902127379668       -0.16925737486196        0.04009816626499
Cu          44.61993795238659       -0.07185031202566        0.04889289064770
C           41.18282636529963       -0.03043401496576        0.04103680048761
C           41.82905321158466        0.00597879690182        1.28887837611429
C           41.14923368554116        0.02505140674504        2.54991922433509
C           42.10501590100728        0.04371436510526        3.51324700100181
C           43.37550841896762        0.04293641662422        2.84624781105197
N           43.17426167941552        0.01778289425746        1.49188283302426
C           44.61402834639429        0.04683708937059        3.48766852008046
C           45.85467426865567        0.01348236622633        2.85096218251123
C           47.12255667023767        0.06189169776922        3.52109972325081
C           48.08202966165747        0.01393655318236        2.56238036117695
N           46.06098289329822       -0.05477014782177        1.49900827932534
C           47.40691404465203       -0.05930282110275        1.30092498029316
C           48.05761916529022       -0.13373031391530        0.05692279024737
C           47.41100407060611       -0.17859188697603       -1.19074911605161
C           48.08895605314822       -0.26033157586230       -2.45024974578606
C           47.13289513096339       -0.26000556611012       -3.41369804802895
C           45.86459715494620       -0.17753112960787       -2.74794538970876
C           44.62669913037586       -0.16656895526331       -3.38991285407152
C           44.63220830742696       -0.18055618381395       -4.88133833101489
C           44.22360693945279       -1.32048832176982       -5.58517564266575
O           43.84334165120372       -2.38248602371289       -4.82622907768349
C           43.41212151740829       -3.58068594330952       -5.43854470542986
C           44.23163466450703       -1.32857866359221       -6.97980017885148
C           44.64427367280523       -0.19526558725747       -7.66406634147414
C           45.05073757733786        0.94558605156829       -6.98869443916426
C           45.04646572055619        0.95225573801709       -5.59418535222586
O           45.41825391697313        2.02262286994095       -4.84321006024175
C           45.85617475699701        3.21450670593252       -5.46316831176873
C           43.38586420399484       -0.13811771296339       -2.75449859152316
C           42.11907783155602       -0.10859536722573       -3.42764660340553
C           41.15927130305455       -0.07606384719703       -2.46861204365392
C           41.83339258386143       -0.07739815192736       -1.20430194215917
N           43.17886264890146       -0.11680880421610       -1.40093578647629
N           46.06679759419045       -0.13288170380599       -1.39442118604524
C           44.61337077034646        0.08074246500578        4.97836430285809
C           45.03024431465222       -1.03976940673592        5.70950306583210
O           45.40931742333762       -2.11984384263450        4.97616443923284
C           45.87424992569138       -3.29164144453448        5.61441273284726
C           45.02886106330803       -1.01345672440174        7.10371808037416
C           44.61472294695523        0.13479343492291        7.76159687416280
C           44.19994143292425        1.25640011975862        7.05964752883833
C           44.19714224794371        1.22864477890343        5.66530383826567
O           43.81684707105719        2.27963163076084        4.89111255441346
C           43.35932910452662        3.47714771652712        5.48545364879853
H           40.07763054106557        0.01902986905419        2.67139510613893
H           41.96786405342826        0.05453235590557        4.58249999296304
H           47.25554354779943        0.12789219463121        4.58892780228424
H           49.15315685425603        0.02959794335894        2.68715654943778
H           49.15940503189200       -0.31260752534302       -2.57077901999067
H           47.26767694582259       -0.31528373449813       -4.48199224640813
H           42.52019129465524       -3.41812907966614       -6.05591715258875
H           43.16482005502566       -4.26573163555600       -4.62544204357095
H           44.20335467108386       -4.02456122145442       -6.05501634980610
H           43.92111500019731       -2.20476183189920       -7.53311487711376
H           44.64897350111456       -0.20117862768667       -8.74856210872458
H           45.36557697503640        1.81609815137322       -7.54849297004095
H           46.09640441160577        3.90713406844803       -4.65435665191020
H           45.07106383848011        3.65305682632897       -6.09116720291818
H           46.75366298202173        3.04528393812335       -6.07051737802313
H           41.98741461225212       -0.11133184875713       -4.49769400352977
H           40.08863064767234       -0.04711224275640       -2.59511825475130
H           45.09933967852412       -3.73878043564401        6.24891514010304
H           46.13095184471380       -3.99069011842357        4.81625342375784
H           46.76726578850142       -3.09216280695952        6.21914618727024
H           45.34482500728671       -1.87490056039399        7.67673269544627
H           44.61519275576040        0.15599792900437        8.84589957379137
H           43.88433319008845        2.13931718751646        7.59920699488502
H           44.13805251417306        3.94401931804967        6.10083197992174
H           42.46686049344659        3.30536866770269        6.09950355535697
H           43.10408431067939        4.14688458673811        4.66211445964257
