154
 energy: -230.196665590838 gnorm: 0.000462339332 xtb: 6.5.1 (b24c23e)
C           13.23983069875380       -0.16695192755392        0.01766804991136
C           13.86086266685075       -1.40795989266007       -0.04243259109324
C           13.23196754282476       -2.68320734776272       -0.11472122838619
C           14.21253149609692       -3.63398577290631       -0.16459564197759
C           15.47170121725583       -2.96973571595455       -0.12252983506477
N           15.20892342805385       -1.63112261441076       -0.04894879066037
C           16.73843460260754       -3.55772771189397       -0.14584836915867
C           16.77793903547474       -5.04699367671785       -0.23894588706546
C           16.77476525509450       -5.66631882965444       -1.49203414352676
C           16.72826137223607       -4.83104250950471       -2.74381277820463
C           16.81694554072383       -7.05357036958821       -1.56904193017896
C           16.86320390910661       -7.83216729691412       -0.41735458200168
C           16.89190259102685       -9.33382206585715       -0.51240480348950
C           16.86350439241975       -7.20526625033362        0.82453581456501
C           16.82190301859504       -5.81960130799229        0.92511406377248
C           16.82851806655182       -5.14859297470165        2.27281240215574
C           17.95257958589219       -2.87497337718626       -0.09079798355263
C           19.24444969722529       -3.53719384534095       -0.10905281421658
C           20.17432010297884       -2.56173651584160       -0.03944981719356
N           18.11868802714957       -1.52547626998618       -0.01340196323976
C           19.44821045022348       -1.30730171327165        0.01740134491551
C           20.08917941411278       -0.05296100505188        0.08420415958736
C           19.44250804138335        1.19664815901292        0.12743916777785
C           20.06568494047219        2.47150440119154        0.18703663527648
C           19.08126190830759        3.42079028054357        0.21114416849958
C           17.82649000484560        2.75192260028041        0.16754036703306
N           18.09673210831416        1.40989928494517        0.11822634543476
C           16.56093137386233        3.34151378036561        0.17703103894883
C           16.52526696099261        4.83253438658888        0.22886300308566
C           16.56765322606670        5.57225513345276       -0.95648667360315
C           16.64353999866220        4.86388160504798       -2.28286878689164
C           16.54297746932571        6.96071534875422       -0.89704756928285
C           16.47802144884369        7.62275560441458        0.32463414136843
C           16.43525678555634        9.12619133612422        0.37540443876516
C           16.43299427550437        6.87659340680544        1.49778273803408
C           16.45641308736774        5.48727945288471        1.46196485128257
C           16.41191999263467        4.68720751780583        2.73655310878969
C           15.34583696851450        2.65546052266399        0.14296655521795
C           14.04773928956290        3.31131314660535        0.16102886958209
C           13.12383365110403        2.32984493531802        0.12136467612796
C           13.85729847379760        1.07646954775899        0.07544355248055
N           15.19204887240791        1.31062835302980        0.09064899521464
H           12.15478693594439       -0.17873809724531        0.01339349613665
H           12.16486076638277       -2.83846835809655       -0.12715889708715
H           14.08744834313159       -4.70330817427573       -0.22366141941371
H           15.91679832494200       -0.90588422650603       -0.00614431382040
H           15.79716053963052       -4.26215997767165       -2.78466462249280
H           16.79242718799323       -5.45794288935418       -3.63267979743852
H           17.55514730731852       -4.11872485649272       -2.75599724482014
H           16.81710573405825       -7.53380376936462       -2.54214362676340
H           15.87297278732298       -9.72746582964840       -0.48965816659682
H           17.35904721699055       -9.65548588262916       -1.44350467773126
H           17.44029917075594       -9.76540628764286        0.32532781293206
H           16.89963058376711       -7.80480818421137        1.72830904408114
H           15.94258782036718       -4.52146956438467        2.38909740327982
H           16.84290257780901       -5.88596113343282        3.07485738555850
H           17.70638866024062       -4.50725008623944        2.37154820680410
H           19.39034044413622       -4.60391740385849       -0.16793698551176
H           21.24872504551177       -2.65352186292375       -0.02819439383790
H           21.13176475570229        2.63105008882517        0.20823886485593
H           19.20361937201681        4.49088711007459        0.25688881245830
H           17.39185849950669        0.68125050591004        0.07915558693571
H           16.58892463350663        5.57433817107892       -3.10716594033785
H           17.58096865905504        4.30953649184963       -2.36222292177989
H           15.82422619288648        4.14934908892707       -2.37971066010333
H           16.57726687064920        7.53454898829752       -1.81743078422353
H           16.88538727254129        9.49672262741495        1.29670882188954
H           15.39878805148748        9.47002896869641        0.34175068009438
H           16.96351295529726        9.55875689598677       -0.47462482839367
H           16.38158936515022        7.38452271202010        2.45535202449781
H           16.35728759539943        5.34210010591004        3.60565298782494
H           15.54194815146027        4.02788371244305        2.73981092135048
H           17.30357141251136        4.06331381270735        2.82382182840674
H           13.89711055656925        4.37855412566456        0.19832771299910
H           12.04819163142160        2.41303089207710        0.11999694354801
C           33.54104960384778        0.16897163434439        0.01438695109755
C           32.91975645227781        1.40511929739246       -0.10934352736855
C           33.54855982167548        2.67511440397561       -0.24629427852326
C           32.56793215583643        3.62188679152095       -0.34587926599553
C           31.30878202806556        2.96044813111260       -0.27090365378642
N           31.57167598147290        1.62742228406196       -0.12846519506472
C           30.04206653881727        3.54636823764019       -0.32549316018308
C           30.00259760285422        5.02878286551671       -0.49594925664250
C           30.00574837218168        5.58194062868037       -1.77963597391871
C           30.05214149407466        4.68247859738054       -2.98612157368642
C           29.96363184401605        6.96328843810109       -1.92886756513032
C           29.91744062220319        7.80086077980457       -0.81932127450735
C           29.88869063557147        9.29552240910959       -0.99253866458316
C           29.91715439911790        7.23956183580917        0.45356291390509
C           29.95870075921688        5.86101467602119        0.62624584267708
C           29.95194447202943        5.26110830576707        2.00705497940690
C           28.82787755434257        2.86726631916874       -0.23597536166992
C           27.53592384082409        3.52744882329374       -0.28899223482103
C           26.60615657257183        2.55669857850722       -0.16967141896167
N           28.66193334023115        1.52356032073379       -0.08922896560592
C           27.33237894816919        1.30694950617319       -0.04821297788392
C           26.69175264863569        0.05739561182605        0.08168146556771
C           27.33868407343870       -1.18825346582376        0.18867819178100
C           26.71561234677124       -2.45855813338366        0.31207421046385
C           27.70010605235953       -3.40532460571065        0.38408057737602
C           28.95481478556500       -2.73931561326106        0.30757463706806
N           28.68449046328720       -1.40146809806982        0.19110878946472
C           30.22038031625197       -3.32758745215123        0.34722559121562
C           30.25614802574767       -4.81416450912977        0.47318564940523
C           30.21565522604415       -5.61183735393081       -0.67404435290072
C           30.14146880207925       -4.97020355955242       -2.03406829470870
C           30.24071387958048       -6.99561640647690       -0.54570901785605
C           30.30422602636045       -7.59614774337644        0.70743328569733
C           30.34776130361835       -9.09517572713523        0.83282455164821
C           30.34725821166382       -6.79264256349441        1.84214821344140
C           30.32340766587808       -5.40682788357362        1.73736534869013
C           30.36589343612489       -4.54444076096281        2.97071634165575
C           31.43544101578036       -2.64398705187321        0.27972739941043
C           32.73358871883650       -3.29788126197105        0.33185539982686
C           33.65741197611356       -2.31947540619445        0.24387785907679
C           32.92383143648571       -1.07012587068353        0.13434445062056
N           31.58910498108487       -1.30344316773605        0.16010638634703
H           34.62609280382376        0.18090206245857        0.01053156819693
H           34.61566506860606        2.82967736911842       -0.26566761518104
H           32.69287596673297        4.68679181682923       -0.45967905902649
H           30.86387043641530        0.90518378472145       -0.04929066237474
H           30.98319197845150        4.11215840293172       -2.99725981136466
H           29.98796079307887        5.26211087343880       -3.90650759985943
H           29.22519719742234        3.97056432352273       -2.96103940095082
H           29.96345217171335        7.39216028380794       -2.92567359191577
H           30.90760212522471        9.68986064587022       -0.99054530504967
H           29.42135680247596        9.56818483939908       -1.93905581177644
H           29.34042714841447        9.77018558191757       -0.17835036589155
H           29.88106448492258        7.88541916444370        1.32484247394923
H           30.83782065718001        4.64084076592590        2.15593565264910
H           29.93750115749973        6.03922850747631        2.76962347649601
H           29.07402332663864        4.62581814834085        2.13891537055017
H           27.38987285197984        4.58969026159372       -0.40285180278321
H           25.53172918601890        2.64880979119311       -0.16355276168445
H           25.64953393569791       -2.61688968243837        0.34090538698209
H           27.57782778213842       -4.47180692957755        0.48320603637403
H           29.38939534362840       -0.67571688291105        0.11568554386818
H           30.19763409650792       -5.72066474182623       -2.82200822326020
H           29.20393925482572       -4.42092287928045       -2.14225706436565
H           30.96064422750449       -4.26096599155103       -2.16503373173122
H           30.20793863154283       -7.61445444150800       -1.43651284808774
H           29.89682173945396       -9.41980271093906        1.77089539291207
H           31.38447447800929       -9.43957440144511        0.81741101757547
H           29.82072861063691       -9.56974174096177        0.00473179641060
H           30.39750185495091       -7.25236743820437        2.82382971556542
H           30.41981302760063       -5.15536308497901        3.87131007251905
H           31.23550899843357       -3.88525177754170        2.94227752152280
H           29.47380594500965       -3.91751402493027        3.02586575362054
H           32.88434312565349       -4.36187453258776        0.42282743682350
H           34.73306110135427       -2.40249786071356        0.24768317581003
C           22.71597133147011       -0.00813083481079        0.10600563498186
C           21.49390341813740       -0.03232518735589        0.09984879918766
C           24.06484851928379        0.01358993258735        0.10506838777365
C           25.28695058146176        0.03630022047344        0.09560086652408
