233
 energy: -367.695898962113 gnorm: 0.000412333402 xtb: 6.5.1 (b24c23e)
Cu          30.38574670749087        0.01249257562223       -0.00972614514210
C           26.97082269389142        0.07564992799110       -0.02342823174724
C           27.61666621098974        1.20736910169503        0.45250167878317
C           26.95657115017064        2.38828071903053        0.93340348380217
C           27.92664920151229        3.25943048828145        1.30741315446453
C           29.18828917101435        2.61758119514779        1.05751887484520
N           28.96939866058082        1.37395751245141        0.53873556066694
C           30.43606708131444        3.18648386908642        1.30978784148066
C           30.45856026102061        4.56596528226041        1.87866874226975
C           30.47434107141798        5.67176976841910        1.02362043454570
C           30.46907642000386        5.46754284528533       -0.46803190293548
C           30.49511942952435        6.95241327889251        1.56291645597052
C           30.49933753753074        7.14783420137709        2.94047963090676
C           30.54259759571100        8.54027319253531        3.50974559244459
C           30.48347218337463        6.04045453354674        3.78179064187149
C           30.46233983135476        4.75048329201434        3.26394727057157
C           30.44449493956498        3.55633083629890        4.18070132894055
C           31.66381114317718        2.57237028668296        1.07021979701774
C           32.94139508653647        3.17147997923610        1.33281882569252
C           33.88615816177637        2.26859110031807        0.96576696029846
N           31.84975480249168        1.31869326695797        0.55045684551253
C           33.19304989081193        1.11340563188296        0.47716919301407
C           33.82331618062044       -0.04683759474642       -0.00615926759767
C           33.15471389068166       -1.18582873902369       -0.48820746062773
C           33.80859681243845       -2.36557947002250       -0.97208421576032
C           32.83398392054181       -3.23696448882267       -1.33730925874879
C           31.57726026892766       -2.59320403751694       -1.07963154463298
N           31.80526480600048       -1.34522135796650       -0.56295732418300
C           30.32947263681759       -3.16371706963906       -1.32343401347745
C           30.30470745681745       -4.54368558646195       -1.89103663941906
C           30.32023466456773       -4.72843617493266       -3.27697813237448
C           30.36336784380711       -3.53428461793985       -4.19288218461188
C           30.29788042064640       -6.01748714450737       -3.79443725071344
C           30.26022102697117       -7.12556148214018       -2.95259503525070
C           30.22614055951519       -8.51283560534092       -3.53506470440708
C           30.24349269929040       -6.93009622277206       -1.57645091927344
C           30.26568331114614       -5.64857268107892       -1.03678569919378
C           30.25045449862603       -5.44480116457533        0.45486947916860
C           29.10161745606603       -2.54895817650135       -1.08101809022223
C           27.81917331476266       -3.14373940319910       -1.34131989479953
C           26.87897416462369       -2.23602122534435       -0.97813883082045
C           27.57832488721342       -1.07984044227688       -0.49267880579767
N           28.92463246622766       -1.29705288165349       -0.56617587205353
H           25.88591492768825        0.09602798033901       -0.02875102628435
H           25.88660741117838        2.51957234895103        0.97393733082858
H           27.81237047610875        4.25034630410954        1.71737321468569
H           29.58318268504868        4.90601312100702       -0.77067675943523
H           31.34701860048685        4.89578987090070       -0.77483618390851
H           30.47346200010016        6.42280860529771       -0.99210535114595
H           30.50659917444598        7.81084891999881        0.89920571111019
H           30.11791628990053        8.56418268004359        4.51349599301288
H           31.57749147155449        8.88533507400999        3.56947233390719
H           29.99082349410069        9.23533553041028        2.87613640693443
H           30.48587734208785        6.18315564501211        4.85751074728924
H           31.33258233126833        2.94223973670910        4.01923808106806
H           30.42004391717409        3.86694248090638        5.22477874325390
H           29.56923743338963        2.93607577926964        3.97886007451848
H           33.08560528028060        4.15749367853871        1.74470253296355
H           34.95889129813187        2.36603979376781        1.01643106312626
H           34.87746885195779       -2.49972694452959       -1.02069750443419
H           32.94494343407080       -4.22900147190251       -1.74501237669281
H           29.51474720783705       -2.87591494953557       -3.99818768260070
H           30.33456784892565       -3.84309705312206       -5.23738855688479
H           31.27638828289227       -2.96028840415028       -4.02304790717010
H           30.31084975588912       -6.16196793991296       -4.86987116005650
H           30.99770799727023       -8.62680511418341       -4.29799913824974
H           30.38306113266276       -9.26534788944252       -2.76238412740232
H           29.25814398942909       -8.69820623485332       -4.00557716254165
H           30.21391665554431       -7.78733554974390       -0.91178781950819
H           29.38200371654181       -4.85169117810321        0.74766940076418
H           31.14487690289485       -4.90534305525030        0.77236925793190
H           30.21403299056439       -6.39976585316544        0.97824994720810
H           27.67165823515597       -4.13037813997822       -1.75098622618350
H           25.80526968885834       -2.32711075866102       -1.02879224554951
Cu          62.50884379794069       -0.02310911088142       -0.05040685634385
C           65.92397829509902       -0.06269947101581       -0.08774129968070
C           65.27900638086155       -1.20608584670458       -0.53618795346010
C           65.94009475098869       -2.39036770047253       -1.00734689578808
C           64.97065489899012       -3.27402586504630       -1.35256577282742
C           63.70843342858136       -2.63598669735753       -1.09597165042587
N           63.92633666908510       -1.38282561171379       -0.60023712751472
C           62.46102693080104       -3.21537530691670       -1.32507806644819
C           62.43946920584062       -4.60291575833160       -1.87399895737075
C           62.43934007256376       -4.80674721948382       -3.25684198342222
C           62.46047877326840       -3.62529634233809       -4.18984005860155
C           62.41912085433348       -6.10349961501495       -3.75649185999132
C           62.40023528145763       -7.19937229062087       -2.89956229588480
C           62.35749913289059       -8.59771417828694       -3.45421640451214
C           62.40056039781341       -6.98483049242305       -1.52530044505277
C           62.42066803859070       -5.69644603814318       -1.00381046095186
C           62.42148979574053       -5.47164228317962        0.48489187683030
C           61.23272634792919       -2.60344399000580       -1.08286848805270
C           59.95561000428277       -3.21046035738330       -1.32900275391876
C           59.01006655928865       -2.30630769842224       -0.96714831731233
N           61.04573335775536       -1.34406061918571       -0.57751266335139
C           59.70223573756672       -1.14287280928818       -0.49709902222762
C           59.07111128719373        0.01957852223802       -0.02006256974651
C           59.73891402622161        1.16475595541275        0.44807420403726
C           59.08413727199437        2.34305055963655        0.93428304326776
C           60.05805370718852        3.22166989243987        1.28375019342178
C           61.31528291709481        2.58458571258962        1.01222568858640
N           61.08825398557680        1.33232914980719        0.50553888098592
C           62.56260300806392        3.16568336137238        1.23242363311730
C           62.58672381495959        4.55044855497260        1.78830761516402
C           62.57146644744553        5.64935006571408        0.92373324847679
C           62.52882780240240        5.43228732933617       -0.56549956499091
C           62.59395577855821        6.93410024425325        1.45172723107717
C           62.63157959209992        7.14131075739166        2.82782567017712
C           62.66526852229570        8.54193254609308        3.37745772479561
C           62.64811016782113        6.04160975589859        3.67787264511979
C           62.62580365387971        4.74673356376189        3.17102476777733
C           62.64138413049965        3.56045805326750        4.09799462088393
C           63.79094281981592        2.55820167615118        0.97450218483849
C           65.07292048148597        3.16662549713171        1.20382526515442
C           66.01389704184601        2.26235066429283        0.83413529003757
C           65.31550722090464        1.09454888700621        0.37587328113095
N           63.96898875806532        1.30188849266730        0.47091709580605
H           67.00894985191350       -0.07502029879092       -0.10013247580248
H           67.01022890995110       -2.51534019399889       -1.06115833041251
H           65.08569466257208       -4.27116196980190       -1.74693380142350
H           63.34656044425843       -3.01422704630923       -4.00773721522121
H           61.58285588071087       -2.99723990237700       -4.02508731909896
H           62.46748438107013       -3.95016705539577       -5.22984760108249
H           62.41968926397569       -6.26174061789538       -4.83004414032009
H           62.79401700739623       -9.30843113635112       -2.75217370060565
H           61.32176568056487       -8.89318747422577       -3.63759966715534
H           62.89837889855819       -8.65702457831375       -4.39911796706423
H           62.38653868458067       -7.83357984298836       -0.84930414419368
H           61.53256284057526       -4.91256770009542        0.78342828590341
H           62.43447369995445       -6.41947284625163        1.02213407536256
H           63.29621984022904       -4.88923743875027        0.78019814548814
H           59.81218657620712       -4.20183140200114       -1.72809705347540
H           57.93740686576531       -2.40825009792122       -1.00965869662322
H           58.01514879359771        2.47085117649944        0.99595392842761
H           59.94636940776127        4.21425458616411        1.68993213709758
H           63.37952191407794        4.82762714427668       -0.88527897395814
H           62.55444667087233        6.38223036150309       -1.09858155131770
H           61.61759863224506        4.89940830496624       -0.84409607256566
H           62.58126399329868        7.78760471531275        0.78166987945717
H           61.88607173279694        9.15205338419494        2.91804941511097
H           62.51928453252587        8.54183518465819        4.45755825089285
H           63.62887505539825        9.00737728325169        3.15944604269125
H           62.67786588800530        6.19251604664876        4.75204350196680
H           63.50918307294587        2.93063548279209        3.89313188301795
H           61.74639437406120        2.95298647076226        3.95041422182470
H           62.67925593028590        3.87986511204583        5.13902782347889
H           65.21967283704487        4.15981473244722        1.59762736312204
H           67.08754374817855        2.36296287513816        0.86357914416122
C           39.02711644074685       -0.10096677681684       -0.00726224577218
C           37.79931422286985       -0.09767025700697       -0.00767474463365
C           36.45348893444028       -0.08601536018925       -0.00700838984166
C           35.23025523762280       -0.06869226348467       -0.00690779505299
C           40.37286160049934       -0.10105422218918       -0.00646190938302
C           41.59638192423658       -0.09776079531391       -0.00498310668960
C           55.09485875489393        0.04015535415556       -0.00067655716563
C           53.86703827341727        0.03587101565618       -0.00286171923500
C           52.52127560316464        0.02993499425891        0.00073202766912
C           51.29781478018145        0.01850480133667        0.00319142351505
C           56.44076207195084        0.03866615065578       -0.00605704182078
C           57.66408202333390        0.03539023370241       -0.01040260897076
Cu          46.44710092771827       -0.04342784759230        0.00002207396571
C           43.00283998155537       -0.08755765183701       -0.00307346948251
C           43.65005601209583        0.07875974168979        1.23453138752458
C           42.97438530005234        0.22868390952747        2.48921670255231
C           43.93303677350544        0.35538333155802        3.44217696228833
C           45.20076568831441        0.28461614298911        2.77338715013683
N           44.99579883276544        0.11630260081568        1.43002746075400
C           46.43882128663148        0.37465079727406        3.40741658497398
C           46.43492434615857        0.55009835942880        4.88953813814778
C           46.42621663221232        1.83416336556096        5.44078653044076
C           46.42136626616955        3.03901660393013        4.53802280875700
C           46.42080298619201        1.98468188246432        6.82288554754700
C           46.42288828005915        0.87587421577140        7.66219775143061
C           46.43549539936924        1.04685109896108        9.15734173842439
C           46.43252765937729       -0.39798782377342        7.10230769422058
C           46.43805026268760       -0.57179114171226        5.72362027266781
C           46.44590721117225       -1.95291883132834        5.12435730239185
C           47.68000397704011        0.31331986349810        2.77607331835826
C           48.94441862690302        0.40975728543450        3.44792311421805
C           49.90769992214172        0.30775214209328        2.49664383794468
N           47.89152730473005        0.15440743459944        1.43260026192851
C           49.23819529522823        0.14790941207988        1.23988087718787
C           49.89136087435562        0.00337175439052        0.00273979271672
C           49.24403221238605       -0.15728342757242       -1.23558929283563
C           49.91951407556294       -0.29738282669288       -2.49151616178153
C           48.96082269278668       -0.42526753890946       -3.44427989370033
C           47.69329112532029       -0.36510447862181       -2.77412392772727
N           47.89835672670143       -0.20080669738621       -1.43029067471104
C           46.45535149810727       -0.46264709396788       -3.40722687102026
C           46.45913852802557       -0.63742965181947       -4.88940350511345
C           46.42327676108175        0.48441372580713       -5.72273685982794
C           46.38115275761600        1.86456540684482       -5.12264604852410
C           46.42577784307201        0.31144985786150       -7.10157396153550
C           46.46260197937754       -0.96151125101462       -7.66223449586805
C           46.48386442142169       -1.13143865434256       -9.15739642056492
C           46.49929484166930       -2.07030504999487       -6.82360239049851
C           46.49740715519588       -1.92063284979137       -5.44144244169830
C           46.53532234824613       -3.12538138216093       -4.53931718359138
C           45.21429323906913       -0.40833705890885       -2.77504849752868
C           43.95003645547591       -0.51502608707280       -3.44563165878635
C           42.98675463534563       -0.41130334941885       -2.49455106326744
C           43.65613808854811       -0.24087963465864       -1.23911608567250
N           45.00272281941429       -0.24375870381972       -1.43226289703347
H           41.90330718712645        0.23381312563990        2.61409178568065
H           43.80373132658637        0.48590747663612        4.50466222419666
H           47.30816374807485        3.03871484346652        3.90132859733954
H           46.40839188366824        3.96087953205003        5.11870349986682
H           45.54438010094875        3.02195025815228        3.88814132529629
H           46.41294493869220        2.98204507181191        7.25034233031660
H           47.45866820981087        0.96821175932772        9.53217086717392
H           45.83882216656548        0.27230879209139        9.64033903501818
H           46.04283654563881        2.02328982793247        9.44143277171512
H           46.43393146136182       -1.26859858681164        7.75006526441366
H           45.56278724063344       -2.09964467313174        4.49955821947153
H           47.32664246989896       -2.08717002594907        4.49348436790709
H           46.45379773587374       -2.71528840006940        5.90276771849075
H           49.06842877006267        0.53861506194171        4.51125271135499
H           50.97815236939665        0.33631866641671        2.62378767068283
H           50.99048600926743       -0.29570902126399       -2.61735304148681
H           49.08993910802435       -0.54935014107929       -4.50756434588174
H           45.48819767788267        1.98205752309259       -4.50566557398566
H           46.37106018376610        2.62744311841442       -5.90052886488757
H           47.25139722253483        2.02678899574627       -4.48387092611898
H           46.39698267619873        1.18203492296334       -7.74872837140186
H           46.11066846117278       -2.11499845218523       -9.44322254678332
H           47.50686761789336       -1.03383710698651       -9.52826024520694
H           45.87472771155048       -0.36802557993360       -9.64246534519247
H           46.52792976533853       -3.06698824513845       -7.25176222615664
H           46.54831938117979       -4.04699421377993       -5.12039023960296
H           45.66199514082935       -3.13617277469648       -3.88443489390725
H           47.42531736336893       -3.09734548720525       -3.90768073040160
H           43.82609157576324       -0.65215156009938       -4.50792795689839
H           41.91640147303162       -0.44572201208845       -2.62102298067724
