134
 energy: -246.221082264140 gnorm: 0.000335940127 xtb: 6.5.1 (b24c23e)
C           11.89786833200663       -0.11424395483947        0.04170349188789
C           12.51238154396785       -1.34692237991070       -0.13607462894464
C           11.86716449130756       -2.60589858759842       -0.29126320198640
C           12.83401059436997       -3.55656751505301       -0.45983214492731
C           14.10110200743553       -2.90726076268312       -0.42068658907034
N           13.85666161916554       -1.57984308416355       -0.21337697143751
C           15.36699970184531       -3.49213356014068       -0.54081692761933
C           16.58097061588226       -2.80828820765029       -0.44031310396419
C           17.88011341396082       -3.43146786553190       -0.61987962955335
C           18.79789286753057       -2.45871357719623       -0.44395920124077
N           16.73124827223095       -1.47953461108516       -0.18418417909744
C           18.05815731519038       -1.24159768837476       -0.17066627868109
C           18.69179303715773       -0.00500119600873        0.07030889046298
C           18.05064397460412        1.23003690075886        0.28455553923199
C           18.68845897268926        2.47414461375615        0.53288724633766
C           17.71719121620410        3.42826745062927        0.65974053186689
C           16.45510031726653        2.79515241964030        0.48623582636229
C           15.19021018197816        3.38984830361748        0.55157129976806
C           15.15197124779781        4.85706154845855        0.75484106760197
C           15.73815964956938        5.71492587758734       -0.18012590343113
C           15.69165478712710        7.08448380232414        0.00303180202527
C           15.06371654315730        7.62307692090696        1.12779165284348
C           15.03902462370481        9.09743384159051        1.27933655215331
O           14.40843083315658        9.51281558562243        2.38840278220143
O           15.53016767636394        9.87017725164000        0.49620041812603
C           14.48216353971661        6.77113029008620        2.06736765339040
C           14.52516423114165        5.40082362556095        1.87920929017610
C           13.97499978568128        2.70592421585499        0.43616293983836
C           12.66857731982672        3.34604701816976        0.46305864584508
C           11.75794110313255        2.36141274554120        0.32771122678923
C           12.50671603755528        1.12319863557762        0.20270273376376
N           13.83842457432173        1.37007768341700        0.26445762180140
N           16.70830542959672        1.46630926372156        0.27187727936666
C           15.40215271774596       -4.95176479632994       -0.79715116897313
C           14.81908567559537       -5.47904200207800       -1.95233548810766
C           14.85317213365288       -6.84018855955139       -2.19984021173890
C           15.46765092382201       -7.69941309637398       -1.28841012910514
C           15.53001545424321       -9.16430499651612       -1.50664351666753
O           14.94760091034741       -9.56235078871590       -2.64802354737726
O           16.04780134205686       -9.94390311446821       -0.74795007507461
C           16.04760419080278       -7.17754539180159       -0.13043377718055
C           16.01735239685023       -5.81669999464399        0.11190528566670
H           10.81264331852682       -0.12814625323768        0.04650600660316
H           10.79906436837245       -2.75219728914887       -0.26984755448625
H           12.68877659380736       -4.61666103672479       -0.59031373336115
H           14.57742641996807       -0.87116308414072       -0.12702941099637
H           18.04563472762961       -4.46885991156239       -0.86115248383576
H           19.87228895388484       -2.52986149347847       -0.49876291321029
H           19.75520151052718        2.61081491649364        0.60735128823357
H           17.85864183496518        4.47657430531332        0.86614053949925
H           16.21285156567901        5.30000170694260       -1.06209892665789
H           16.13749226009464        7.75562572338557       -0.72287365882513
H           14.43604988288502       10.48307492015416        2.41276333431475
H           13.99805167872027        7.18445874759009        2.94426646054907
H           14.08429523865041        4.73900399221052        2.61606259624648
H           12.49640614622585        4.40587467830364        0.55982150945466
H           10.68211504667986        2.43519336716759        0.30018811413251
H           15.99065303011634        0.76322463356768        0.12958213173158
H           14.35380431415460       -4.81046954002852       -2.66798788133431
H           14.40509673995655       -7.24007450181663       -3.10177792422046
H           15.03334901344439      -10.52708764882780       -2.71661513115289
H           16.51882280719640       -7.85494046553942        0.57326402767864
H           16.45742702548213       -5.41486703059411        1.01740473853403
C           37.22834284852735        0.08163233132549        0.08421537966005
C           36.61392466439344        1.26218830811138        0.48111503068638
C           37.25925203400614        2.45617425115921        0.90928407972706
C           36.29250541763422        3.38119649373433        1.18632318102415
C           35.02538415887216        2.78406249571275        0.92853052832867
N           35.26967947918141        1.50516697058469        0.51681500685184
C           33.75946445470616        3.36107492298811        1.08227556848691
C           32.54564632293128        2.70510952960467        0.86341624596079
C           31.24648951890961        3.34316802396111        0.97934319266600
C           30.32888748051489        2.39470068830304        0.70016510963604
N           32.39557465714922        1.40222570619733        0.49761584434595
C           31.06877268263761        1.18362202016401        0.40160053228867
C           30.43517435131826       -0.03045343541974        0.06490561262086
C           31.07639878485440       -1.23112251482494       -0.29505130525998
C           30.43856175461508       -2.45558417120338       -0.62686825402995
C           31.40969156001785       -3.36551683948914       -0.94112385459049
C           32.67168405468529       -2.72080972954834       -0.81653924658485
C           33.93650307615440       -3.28078171224332       -1.02786749014653
C           33.97481516054471       -4.68357634555869       -1.50315036428624
C           33.38183410382673       -5.03357569366204       -2.71957535952144
C           33.42837433004943       -6.34014898296800       -3.16909658330652
C           34.06336300285038       -7.32383527625001       -2.40841345431624
C           34.08791757834327       -8.71000288639229       -2.93303857133634
O           34.72610348915904       -9.57636504752160       -2.13163903740180
O           33.59103203780194       -9.05146253336228       -3.97621173417168
C           34.65180724619672       -6.98125639000537       -1.19054824254543
C           34.60850695056530       -5.67181627893641       -0.74506300536769
C           35.15157689273309       -2.61623071594299       -0.82801376848848
C           36.45792922662237       -3.19852103757258       -1.09562179560345
C           37.36839277608176       -2.25727920806040       -0.77591972427462
C           36.61954773527977       -1.09605110443305       -0.32845353396762
N           35.28794672960964       -1.34563305256917       -0.38127742955698
N           32.41860458694684       -1.43626725571966       -0.41428021366709
C           33.72400684298211        4.78046542997958        1.50812413676801
C           34.31077707713693        5.76965942608207        0.71459870789893
C           34.27629417064761        7.09714606499962        1.10411734647006
C           33.65753007410559        7.45652249750061        2.30183564622866
C           33.59420058027082        8.86368328375499        2.76369005933893
O           34.18013080703386        9.73111575131251        1.92424771687809
O           33.07318054279259        9.22036265015672        3.78976582181761
C           33.07402442256598        6.47092805939370        3.10041108836195
C           33.10472373585283        5.14603019829496        2.70641283307604
H           38.31357868683984        0.09223757051860        0.09359886800082
H           38.32735166931153        2.57698773456875        0.99454246563477
H           36.43792496042256        4.38652216803730        1.54700146819588
H           34.54879013761047        0.83359106624616        0.27495732136925
H           31.08085123871258        4.37902771499094        1.22702406570641
H           29.25454838951191        2.48311009999932        0.68103994094943
H           29.37193970878077       -2.61183708026786       -0.61917532689620
H           31.26809820370831       -4.39586100022484       -1.22376984784268
H           32.90183755261861       -4.26883092546804       -3.31969224473197
H           32.97706776242033       -6.61638093031773       -4.11574990097384
H           34.69816344224400      -10.45482017038826       -2.54431873142820
H           35.14144927162474       -7.74227307577109       -0.59450905364330
H           35.05455768530811       -5.40895290261136        0.20744074257024
H           36.63020113725949       -4.18822665385095       -1.48682609961529
H           38.44411459091472       -2.30955780751566       -0.83666558201333
H           33.13623558219590       -0.74329781333197       -0.22879729089276
H           34.77921292211461        5.49306719992187       -0.22332479285192
H           34.72724383117417        7.85888853820405        0.47916798708783
H           34.09355579755275       10.62416638460393        2.29537437614280
H           32.59917040509901        6.76090284560665        4.03128608063079
H           32.66172274481553        4.38096932982593        3.33371099334127
C           20.09688607018456        0.00826630295533        0.09032592709169
C           21.32166378497682        0.00515517353797        0.10498850746310
C           22.66393449669247       -0.00379005083067        0.11371316420994
C           23.89474886031389       -0.02168462788502        0.11550791587843
C           25.23224817546039       -0.03733441617771        0.11213605425880
C           26.46307132880441       -0.05244707501459        0.10361740743006
C           27.80532982244709       -0.05685585741000        0.09087289214243
C           29.03011826135614       -0.05171663293627        0.07728375950849
