244
 energy: -407.302042752913 gnorm: 0.000427754832 xtb: 6.5.1 (b24c23e)
Zn          51.26758242300495       -0.01380508655936        0.04988258569541
C           47.85233201928700        0.00574448734117        0.13109453511923
C           48.46757792353251        1.14526688668981       -0.37323001037194
C           47.77869048694821        2.29553077801247       -0.88681074568529
C           48.72662527180635        3.18105401375044       -1.28451862940621
C           50.00723032863063        2.58698525431958       -1.00652399214614
N           49.81455835635157        1.35030955695777       -0.46335662654421
C           51.25043092603884        3.17345087415006       -1.27327161596466
C           51.24248095659450        4.54502326789498       -1.83986174948266
C           51.79336800482654        4.80313725147344       -3.09711626632486
C           51.78008926603071        6.08061590663876       -3.62935433638585
C           51.22475878436869        7.13685005777523       -2.90310542327178
N           51.17282956346801        8.40917720387247       -3.44923838772126
C           50.66849762638099        6.88687461629796       -1.64636885251252
C           50.67802686453678        5.60464709479359       -1.12588493205880
C           52.49778417494806        2.57995345191025       -1.04561452081217
C           53.76493718952564        3.21388555987924       -1.27603990754108
C           54.72641687934963        2.32551519655358       -0.91701844649532
N           52.71573370685970        1.32438889412163       -0.54198681642906
C           54.06271712518286        1.14436103111664       -0.45392173224045
C           54.71748423697179       -0.01710479560073        0.00892963831503
C           54.06905199768686       -1.19146746235806        0.44883495614847
C           54.73839420555677       -2.39834638724122        0.82881237665873
C           53.78362146635469       -3.29269943977886        1.19087732071929
C           52.51533918684020       -2.63613319193334        1.04774128067213
N           52.72486870236264       -1.36507222569214        0.58038856138648
C           51.27401129438474       -3.22022755803541        1.32785354906768
C           51.28129397396142       -4.59981582215933        1.87307213319173
C           51.91569998116567       -4.88456594102009        3.08470255425067
C           51.92284048103456       -6.16957763278120        3.59811548408703
C           51.30340824459581       -7.20754562621119        2.89774690716417
N           51.27459909589157       -8.48737017163000        3.42691100205408
C           50.66239694434741       -6.93094233856365        1.68773909857088
C           50.65268664122903       -5.64117992701751        1.18620841821333
C           50.02660792640648       -2.61310016149412        1.13776752918259
C           48.75412198459318       -3.19204197886304        1.47768351799947
C           47.79945189958978       -2.28903046688096        1.13966127573443
C           48.47683345732338       -1.14401064220699        0.59973882846297
N           49.82359027904055       -1.36789805183738        0.61839964274090
H           46.76702016144688        0.01348065752992        0.15953113901840
H           46.70597018850832        2.39770591161951       -0.94120304225993
H           48.57576757106578        4.14738812011095       -1.73864305029304
H           52.21848205183158        3.98688175664207       -3.67103585248032
H           52.20102515094155        6.26635985886174       -4.61156851207328
H           51.86273823099140        8.59357074592936       -4.16004400098080
H           51.07396530911845        9.15396711886706       -2.77782495806569
H           50.23270100103888        7.70226564368663       -1.07918531888566
H           50.25940884042178        5.42155051462403       -0.14217017687292
H           53.90237130543156        4.21473764412530       -1.65253843724113
H           55.79426329184476        2.45652680102942       -0.96305159402149
H           55.80431003707916       -2.54774597955515        0.80357347722029
H           53.92597932392108       -4.31228792326788        1.51098206213990
H           52.39149807306403       -4.08267476717628        3.63875600195506
H           52.41012307035157       -6.37564850240010        4.54496749709362
H           52.00645232672644       -8.68926326091640        4.08930347547478
H           51.12210468459046       -9.22146675865057        2.75391768875980
H           50.17657680965721       -7.73203427679161        1.14122355044946
H           50.16880112322342       -5.43829422840114        0.23692963468894
H           48.61343140046035       -4.16057857440292        1.93039396149662
H           46.72969496424712       -2.37689472731216        1.24936176994854
Zn          84.09317304135149       -0.06966360325576        0.07580269369136
C           87.50478008955372       -0.06642758021324        0.11946295790159
C           86.87758648461906       -1.12044768818751        0.77340351791756
C           87.55404861998771       -2.21042154711476        1.41816621605579
C           86.59714307728210       -3.01921126691037        1.93910005790245
C           85.32344443039787       -2.42564442678894        1.63019180794233
N           85.52898716507811       -1.28351951579737        0.91199495118557
C           84.07440017490717       -2.94113044303382        1.99874892376389
C           84.06300146916681       -4.17432856131544        2.82255916820308
C           83.43827407904347       -5.33437216179346        2.35794076994203
C           83.42739747145706       -6.48944446667904        3.11980812164857
C           84.03244265574024       -6.50411740102565        4.37892610944079
N           84.05806019083542       -7.66909013444366        5.12784723427501
C           84.66247344755220       -5.34968826875374        4.85002313598675
C           84.67648275764847       -4.20174905075240        4.07729677342591
C           82.83390255487831       -2.38813751243332        1.65738119005975
C           81.56006230155896       -2.87362620134602        2.10900662957087
C           80.60979141390936       -2.07034970852875        1.56520079820288
N           82.63323260083421       -1.29094843975302        0.86266842878582
C           81.29045898776995       -1.08447858671870        0.77985628458111
C           80.65415860892385       -0.06860414501730        0.03783708231417
C           81.30867239600441        0.94283191263387       -0.69464186839039
C           80.64701897626682        1.92388207829326       -1.50161590291037
C           81.60947246415978        2.72512322644938       -2.02653414597175
C           82.87204659789808        2.24349173161330       -1.54093319755176
N           82.65299928035809        1.14920194472053       -0.74691316269680
C           84.11941779924616        2.79902159187970       -1.85167354149159
C           84.12557904552159        4.03209233960905       -2.67556585662456
C           83.48332459035801        5.18918190798507       -2.22762205673181
C           83.48869538372858        6.34484720810483       -2.98860202302834
C           84.12835754108497        6.36311204987501       -4.23038678665729
N           84.16997560935587        7.52921822954852       -4.97737239560486
C           84.77597357000982        5.21176023997180       -4.68474215155222
C           84.77333179387557        4.06313075897420       -3.91286090986255
C           85.35965744980375        2.28716363772650       -1.45008180386681
C           86.63972777900948        2.88329073428008       -1.72589693874675
C           87.58426758431368        2.07711725262428       -1.17899875775554
C           86.89328783712797        0.98620897206927       -0.55132475955291
N           85.54853868039314        1.14622927168497       -0.72553861121976
H           88.59043198365821       -0.06540724097466        0.13399789211778
H           88.62505860909967       -2.33632435132297        1.45338526993972
H           86.73763141018897       -3.94454575900341        2.47466549200909
H           82.97359270670226       -5.33345793463430        1.37788954700994
H           82.94847360223604       -7.38670249014353        2.74294963948352
H           83.32989822801208       -8.33027198838208        4.90937126393497
H           84.20159367224417       -7.53507244973665        6.11607646852566
H           85.13638618098894       -5.35591984227128        5.82563702140998
H           85.15137541967434       -3.30422214648712        4.45853949900866
H           81.41231826188272       -3.71028272401731        2.77285999022610
H           79.54114896629979       -2.12819032470640        1.69489905194911
H           79.58225434223405        1.97876014245480       -1.65984794580514
H           81.47718263614955        3.55747489499789       -2.69897334712624
H           82.99159004450512        5.18546178261839       -1.26087169080424
H           82.99570379600767        7.23972950017498       -2.62444982685224
H           83.43291982482734        8.18652617716058       -4.77731401342635
H           84.33692036124081        7.39553729131150       -5.96204152825589
H           85.27675257470396        5.22083217301696       -5.64681728254876
H           85.26213446627422        3.16789340591351       -4.28169849338309
H           86.79221931150077        3.80842958102091       -2.25851656588916
H           88.65555146644955        2.20536524705438       -1.18610266134611
C           56.12818455263311       -0.00427688951791        0.03395589043081
C           57.34658051014886        0.01459163584164        0.08009355066005
C           67.08582834134765        0.03532381705802       -0.03522945636654
C           68.30480358138169        0.04056816020487       -0.00018836485923
C           78.02712140902173       -0.05067637090292        0.02784358055999
C           79.24489787341548       -0.06094327634842        0.03030464647181
Zn          62.21753179380474        0.02914595252677        0.02676202084009
C           58.75693443103447        0.02623687202927        0.09020585011106
C           59.40301126214662        1.23400483646305       -0.25040124336582
C           58.73218174406679        2.47011580555317       -0.51607913583956
C           59.68713838711489        3.39608302078276       -0.78842539485832
C           60.95522983195568        2.73133137129817       -0.69759063405198
N           60.74748882615928        1.42126248319412       -0.35584525704191
C           62.19791110184060        3.34315764464818       -0.89789111729895
C           62.18819663755225        4.76891877799023       -1.31043056139783
C           61.59290485371481        5.15470898157074       -2.51370832570276
C           61.58998583954313        6.48008714364577       -2.91171581221547
C           62.17279522545736        7.45648028447006       -2.10032802034248
N           62.20864348124594        8.77824600989796       -2.51436759625442
C           62.77135269709413        7.07914005096605       -0.89586609128923
C           62.77820042793125        5.75001527849320       -0.51034717989091
C           63.44809299081415        2.73275915513827       -0.74818508364161
C           64.71055683040713        3.36873380413806       -0.99359737529450
C           65.67549529637992        2.44835687112174       -0.73931427315025
N           63.66991987815344        1.43499350691610       -0.36907447030957
C           65.01685497869175        1.23819452310824       -0.35213865220542
C           65.67641994465500        0.03081159096611       -0.03723405114701
C           65.02935095140057       -1.18570833363057        0.26979160145332
C           65.69840698842428       -2.43247756794601        0.48608113006534
C           64.74381594332840       -3.35898699704017        0.75829896765413
C           63.47854663673142       -2.68390108797732        0.71601588282094
N           63.68664295298675       -1.36772770045825        0.39826029199322
C           62.23715069291362       -3.28699794571861        0.94782606934514
C           62.24562990433060       -4.71480992824560        1.35049402902591
C           61.60442263207950       -5.68122541769469        0.57183836639379
C           61.60994621985422       -7.01334042633712        0.94656730803312
C           62.24858614367608       -7.40730672805466        2.12489688626640
N           62.28822493564803       -8.74461269941624        2.48433216426516
C           62.89742936593495       -6.44834682290750        2.90654705289758
C           62.89505889668486       -5.11995370815130        2.51916970922823
C           60.98839356485485       -2.66473163918483        0.83490984557095
C           59.72931477017357       -3.28508430025265        1.13129123588919
C           58.76367091603187       -2.36390205437035        0.88162984727801
C           59.41875488513222       -1.16956504128554        0.44339114697798
N           60.76493160439101       -1.37351605224258        0.43547680792699
H           57.66581488233332        2.61522009470329       -0.47761844475203
H           59.54538000238494        4.44109720031543       -1.01245159795380
H           61.14600034459340        4.40109974148065       -3.15301376257370
H           61.13544891346890        6.76525797996280       -3.85431570305941
H           61.49648389536510        9.03280542819448       -3.18022985541957
H           62.32928033397162        9.45061455034871       -1.77359947522248
H           63.22774473922770        7.83256011425262       -0.26306190722750
H           63.23027476068063        5.46735536086869        0.43411599609588
H           64.84355950573945        4.38372366544614       -1.33147510804180
H           66.74197054621914        2.57294962406052       -0.81954462849658
H           66.76248895931946       -2.58327908622488        0.41566086960676
H           64.88376570002481       -4.41048070081917        0.95062049752199
H           61.11347115139412       -5.38473815100630       -0.34871401148895
H           61.11737673635395       -7.75568325838292        0.32791339465048
H           62.45643098660280       -8.91545442319181        3.46297550496061
H           61.55101670155631       -9.31025547430909        2.09472847275669
H           63.39883734456936       -6.74895136037472        3.82013425184796
H           63.38592960113118       -4.37873065742976        3.14046510869447
H           59.59932815335055       -4.28991675676403        1.49960187966001
H           57.69960234512679       -2.47689954910350        1.00045020402505
Zn          73.16927564840621        0.00128816735094        0.02983182122950
C           69.71416586741667        0.03451934710636        0.01741760665421
C           70.37885171190811        1.20817775853744       -0.39810161614337
C           69.72411437726387        2.41838678174124       -0.79212018107763
C           70.69234283980846        3.32740661180496       -1.07301037266078
C           71.95378970117081        2.67579208271066       -0.86588155402360
N           71.72699983333065        1.38944779779559       -0.45196873351131
C           73.20530953623113        3.28238410463904       -1.02107270484169
C           73.21791388865248        4.69515337651397       -1.47720581112937
C           72.69947300355993        5.04295567540210       -2.72659394916053
C           72.71318945557540        6.35710482215252       -3.16024192042193
C           73.24760750904288        7.35798147772973       -2.34552778087561
N           73.22020999930719        8.68155140736486       -2.75577449967693
C           73.75560790849221        7.02068873444335       -1.08883116600987
C           73.74558746515170        5.70261829514898       -0.66673267989661
C           74.44504054882509        2.67710843487011       -0.78674522993157
C           75.72171620629670        3.30541371118251       -0.97477656153088
C           76.66976459317301        2.38196061104021       -0.67078958231450
N           74.64126144941307        1.38309226508026       -0.38372591570926
C           75.98444487814550        1.17730681397131       -0.31025080464397
C           76.61837665658742       -0.03333647890507        0.03579330407835
C           75.95828855408686       -1.23125077157729        0.37835943414548
C           76.61502224478271       -2.47389510931721        0.65232692888334
C           75.64689454445845       -3.38184207108589        0.94087371505758
C           74.38766660541039       -2.69880329782448        0.85265524618759
N           74.61248621114393       -1.39693445346854        0.49213956301313
C           73.13512082229973       -3.27747037342351        1.08987123358771
C           73.11644810883026       -4.69317544050044        1.53093567510787
C           72.45261660230601       -5.66326665510795        0.77554154175064
C           72.44011430272234       -6.98833219877022        1.17352422310862
C           73.09342546990497       -7.37371254927873        2.34666488653970
N           73.04420563332808       -8.69101172422831        2.77291641098709
C           73.74639174294326       -6.40797155544324        3.11644481489488
C           73.76185500983654       -5.08653769174606        2.70583735363678
C           71.89745929900839       -2.63977015463720        0.94213999472880
C           70.62747708651936       -3.21813771372879        1.27540504316428
C           69.67812631892805       -2.29469910663969        0.97527114857040
C           70.35463586675843       -1.14323178967973        0.46048963101209
N           71.69679844621639       -1.36997985588171        0.46815069951847
H           68.65736334254355        2.55757786040833       -0.83656888391969
H           70.56214112097317        4.35284939521033       -1.37895088504644
H           72.29818097346890        4.26881572647574       -3.37160685174966
H           72.31269892956198        6.61364372490368       -4.13503234319044
H           73.16398964210747        8.81279100531002       -3.75334793706643
H           73.89933497830334        9.27630131687977       -2.30788744779847
H           74.15856124643805        7.79583412081000       -0.44602623768038
H           74.13407738249713        5.44996596347610        0.31387173663030
H           75.87466522814401        4.31948461069844       -1.30738098607667
H           77.74058964161311        2.50288151565445       -0.68932829198419
H           77.68051285674150       -2.63274925818947        0.61180603538295
H           75.77458021106082       -4.42657720359732        1.17465014403151
H           71.95864237542102       -5.37511205148956       -0.14604886250238
H           71.92739327266209       -7.73278937096065        0.57409878680300
H           73.78472210395550       -8.96090356659271        3.40070237756145
H           72.86480540122861       -9.36457564230400        2.04524802431510
H           74.24216815374740       -6.69879819663853        4.03627221622084
H           74.26345061670885       -4.34164021711564        3.31403231679060
H           70.48072863205734       -4.19613424028738        1.70462415034951
H           68.61273494896497       -2.37692328167418        1.10999997360460
