186
 energy: -354.552449029085 gnorm: 0.000455533865 xtb: 6.5.1 (b24c23e)
C           31.78625608706108       -0.01521454991404       -0.01401081969115
C           32.37490685944677       -1.24082195845793        0.26734960408418
C           31.70337538773629       -2.46892529088668        0.52560637455861
C           32.65036470656986       -3.42539270578845        0.75791627789990
C           33.93137277613134       -2.80929840024895        0.65912390469486
N           33.71447267236049       -1.49658130178758        0.35409825678824
C           35.18625865499001       -3.41289807056954        0.80046261482170
C           35.19129165375802       -4.85357554167596        1.14725717977598
C           35.77896951881792       -5.78710789136713        0.28795638367785
C           35.78146158625298       -7.13265022045890        0.60735538862035
C           35.19378592888914       -7.54905416601543        1.79851348640484
N           35.19263719370704       -8.96122053373507        2.13839888779946
O           35.71971611264423       -9.72052667139233        1.36655347467856
O           34.66325807877936       -9.28554412874915        3.17017991672574
C           34.60506158244652       -6.63610915010801        2.66870427849245
C           34.60442119745109       -5.29329104142400        2.33789800068838
C           36.41555450924483       -2.76649602418432        0.64303683498998
C           37.70031894782903       -3.41455599422439        0.83744637009719
C           38.63945169932710       -2.47513030209832        0.60571871408057
N           36.59660330756407       -1.45695397952662        0.32008672977115
C           37.93009880486157       -1.25139678972525        0.28711543329761
C           38.59074984008323       -0.04480124868492       -0.01761364115699
C           37.97400550632063        1.18253417296502       -0.32585208040260
C           38.63484210384476        2.39929838436623       -0.63980694679158
C           37.68245377581876        3.35266911380690       -0.86963649777535
C           36.40720572739009        2.74974981120139       -0.68709180521776
N           36.63490907166313        1.43778266791821       -0.36739871010697
C           35.15337344727064        3.35465976721588       -0.83355826069841
C           35.14347044581191        4.79430064933779       -1.18138630493629
C           34.53811024912859        5.22828237249034       -2.36514430252489
C           34.52239341984223        6.57077490569928       -2.69625808466388
C           35.11408896101303        7.48961405399644       -1.83411111162939
N           35.09780946137116        8.90134166795025       -2.17494010612257
O           34.54407084588527        9.22217853081799       -3.19494329631611
O           35.64013996825371        9.66372546567495       -1.41660120193214
C           35.72041989102866        7.07915878454031       -0.65030753035053
C           35.73430018211352        5.73376080571482       -0.33054082965642
C           33.92317333385324        2.70767418303987       -0.67288354717580
C           32.63053042975787        3.36992277097542       -0.76763407134699
C           31.69931260693402        2.42354777173183       -0.53713859528297
C           32.42159565578319        1.18755978191341       -0.29073907717082
N           33.75856560917024        1.39827082151333       -0.37320173493704
H           30.70111614444934       -0.00520778002026       -0.01412398500502
H           30.63231241565709       -2.59237032152898        0.52349464691447
H           32.48213188135979       -4.46888654672686        0.96899581165342
H           34.44989364442119       -0.81298651676777        0.20909632576173
H           36.22061122794759       -5.45219675680685       -0.64328548067245
H           36.22946937018531       -7.86391421772506       -0.05463578646826
H           34.15831811319620       -6.98499262627371        3.59196494787456
H           34.16181375466062       -4.57126462121253        3.01423039715125
H           37.84469422743611       -4.44351783766783        1.12376927423653
H           39.71127762651572       -2.57829783336165        0.64162919308413
H           39.70426693539612        2.52368046558135       -0.68221316375249
H           37.84752545676646        4.38035687430937       -1.14884794008297
H           35.90294288977607        0.75733505300714       -0.19131585200401
H           34.09263915144879        4.50166326805213       -3.03447871361376
H           34.06055091036013        6.91537534372453       -3.61367272091464
H           36.16910809601218        7.81480851110577        0.00634867100472
H           36.18862301420953        5.40444228275650        0.59669863917959
H           32.48108144650324        4.41857324647441       -0.96774291270667
H           30.62550568360326        2.52245799277957       -0.51909979603005
C           60.33757594826093        0.08119199705396       -0.08507118506338
C           59.72500526701730        1.26604572171988       -0.47124036919686
C           60.37261453540588        2.45710583353086       -0.90472742474230
C           59.40909095679968        3.39127232725774       -1.15938683422116
C           58.14170435015694        2.80339782191865       -0.87977704534891
N           58.38225180582280        1.51928770835223       -0.48389594866639
C           56.87687668613413        3.39285509422198       -0.99357045893265
C           56.84167904304739        4.81892306361806       -1.39102745377602
C           56.16224695579373        5.21514040297426       -2.54746618894987
C           56.12933448815727        6.54564959590587       -2.92304995995138
C           56.77829667663902        7.49053374825981       -2.13327776837338
N           56.74666726151801        8.88958402085432       -2.52221914021348
O           56.14860740192884        9.17529817467685       -3.52738896496106
O           57.32145532198462        9.67731625085325       -1.81543092360281
C           57.45807909844935        7.11802868651745       -0.97716969967063
C           57.48869758524631        5.78438548503328       -0.61297191721161
C           55.66255029372135        2.74235598315516       -0.75499605961173
C           54.36767591676949        3.39799667545465       -0.80280722300535
C           53.44950814857511        2.44898502660174       -0.52801993982357
N           55.51028059514204        1.43009007634101       -0.42952772134921
C           54.18378822239851        1.21871206198022       -0.30302130785746
C           53.54962620524463       -0.00136330181714        0.00311106282559
C           54.18773505753877       -1.21531714782456        0.31841379986157
C           53.54916034673622       -2.45454776979640        0.58823080981112
C           54.51797837842586       -3.37866756260096        0.86566978292923
C           55.78029062260470       -2.72877780281305        0.77878245314558
N           55.52969296062671       -1.42771052586877        0.43405043475159
C           57.04539087048958       -3.29673920085296        0.97186616302688
C           57.08305738507237       -4.71680173024316        1.38753736760416
C           57.74708313718784       -5.66486395419143        0.60206183778897
C           57.78783122131364       -6.99262370185821        0.98576655611612
C           57.16191190519588       -7.37746824493314        2.16810352120652
N           57.20337375726299       -8.77038295099915        2.57692820636578
O           57.80018851128734       -9.54117075800569        1.86977584746001
O           56.63739972788034       -9.06880218712483        3.59709278539993
C           56.49641278401482       -6.45030908560854        2.96507730153918
C           56.45793683464452       -5.12560992640010        2.57013823156892
C           58.26108237031787       -2.62566626362015        0.79664305147639
C           59.56753306018491       -3.21121055087589        1.05862341182514
C           60.47746319672408       -2.26418422449620        0.75645191191125
C           59.72833128798999       -1.09701952946765        0.32443361805728
N           58.39647262347346       -1.34680004795813        0.37513631588585
H           61.42262269419017        0.08742824669818       -0.10418457727602
H           61.43981221207411        2.56961781772392       -1.00893321518882
H           59.55744912200446        4.39627677924176       -1.51951311503981
H           57.65955671218069        0.85256147616156       -0.23407768512704
H           55.67278074449214        4.46834638914090       -3.16161618974730
H           55.61040333091805        6.86104272542353       -3.82024732557271
H           57.95086955073305        7.87330214866157       -0.37681349013289
H           58.00149805409849        5.48471535091470        0.29362166805286
H           54.20469157064029        4.44490821378301       -1.00067044977646
H           52.37875972738303        2.55232862086500       -0.45989744515282
H           52.48366107608778       -2.61459955007958        0.55997695317044
H           54.37324508784653       -4.42169799735819        1.09501022383273
H           56.24974607707842       -0.73005159362088        0.27750858775125
H           58.21779214591850       -5.35585294317016       -0.32386984203514
H           58.29523313216083       -7.73443405079814        0.38082607564673
H           56.02145361736360       -6.77434418826987        3.88331236603293
H           55.95704555770235       -4.39210076901584        3.19125746017813
H           59.74007411913526       -4.20570731527093        1.43710047944362
H           61.55289176855808       -2.31626675759123        0.81902178926606
C           40.00167936507552       -0.05082582386761       -0.01515901795973
C           41.21902701184725       -0.05421886498032       -0.01373912494169
C           50.92293573274592       -0.03476425600368       -0.01051853304790
C           52.13971216288315       -0.02071786307806        0.00066605425877
C           42.62917311072044       -0.05609846280606       -0.01829103688144
C           43.25588457560305        0.91136157413273       -0.82662655881949
C           42.61028935739640        1.88157474284620       -1.63564947540060
C           43.57572019864173        2.61420762744196       -2.26939318865539
C           44.84208861113847        2.10196606228286       -1.87585567052406
N           44.59841339458570        1.08061793562015       -0.99788144844194
C           46.10204795536102        2.56080201343280       -2.28064443037298
C           46.11068813489400        3.67304346894712       -3.26138970878056
C           46.68845970200667        4.90235261722137       -2.93029924423697
C           46.69637973539446        5.94326230757929       -3.84103671705110
C           46.12597871012295        5.75137297196321       -5.09604636188038
N           46.13239297251036        6.84055623683045       -6.05776331055537
O           45.62367689549858        6.63876625264782       -7.13039260558766
O           46.64522484820852        7.87668690635773       -5.72241117836350
C           45.54890221347339        4.53437972502555       -5.44674504065630
C           45.54136136424618        3.50174000805702       -4.52683269475609
C           47.33251837643253        2.05999587761380       -1.85134898858996
C           48.61379627033441        2.52723999591556       -2.35127539712064
C           49.55774056202922        1.80083956903252       -1.71890570967226
N           47.51903356698379        1.05865949406652       -0.94922279956453
C           48.85300272898308        0.88675530417415       -0.84157799743901
C           49.51379693495701       -0.04648198402422       -0.01983556509511
C           48.88875724218441       -1.00503477716356        0.79912518360215
C           49.53520187135620       -1.93103914095003        1.65803110060971
C           48.57030999098467       -2.68006562776491        2.27347613245393
C           47.30453640369802       -2.23447962229536        1.80364564642040
N           47.54731511446388       -1.21752473964924        0.92083796882779
C           46.04431739457716       -2.70322090332632        2.19551276205892
C           46.03751381782408       -3.83542875174244        3.15305093573684
C           46.60796562135376       -5.06139103479633        2.79727693042890
C           46.60416257707669       -6.12262090609791        3.68414929952170
C           46.02989769688272       -5.95442897156159        4.94076369475724
N           46.02827777382578       -7.06404464455291        5.87872655144663
O           45.51587725782716       -6.88390603300289        6.95333671835555
O           46.54096930446969       -8.09385891919476        5.52377948481465
C           45.45949743122182       -4.74146530525033        5.31571272688651
C           45.46400204613762       -3.68808461964417        4.41953346507614
C           44.81419384906322       -2.19857864941327        1.76925714829909
C           43.53249050061721       -2.74129075158317        2.18379284161141
C           42.58849448185863       -1.99875238811897        1.57108419871640
C           43.29196163429881       -1.01616047096450        0.77089848255444
N           44.62687677355500       -1.16273625673815        0.90667955771948
H           41.54262450895030        1.99882967923728       -1.72039045094163
H           43.42406745479093        3.44083280611613       -2.94392147577193
H           45.31761804653768        0.52999355781374       -0.54083003244256
H           47.11898829576359        5.04220686218365       -1.94566303227334
H           47.13605515181199        6.90152876656979       -3.59178679079568
H           45.11620041176127        4.40905253430558       -6.43200764297243
H           45.10706019255858        2.54501437582749       -4.79270066917698
H           48.75084853341244        3.29363768893607       -3.09661013721790
H           50.62861415242281        1.84873355095787       -1.83163604941932
H           50.60214248544285       -2.00201833939018        1.79283204384907
H           48.72091094092934       -3.46231095376312        2.99927720419856
H           46.82794346210899       -0.69064752991397        0.43695164590796
H           47.04078899681577       -5.18327532480169        1.81113147155914
H           47.03768491045669       -7.07831880871080        3.41504543939654
H           45.02276855276290       -4.63541650346246        6.30146225986472
H           45.03470208606513       -2.73461236235590        4.70410827464293
H           43.39385157223236       -3.58162525242380        2.84419039639004
H           41.51710808206171       -2.08894506614476        1.63970715362021
