244
 energy: -487.655063390188 gnorm: 0.000584352348 xtb: 6.5.1 (b24c23e)
Cu          52.26546747144926        0.00368976072852       -0.07786072061075
C           48.85941692446534       -0.01796368476658       -0.14238935551272
C           49.49479271890687       -1.23815923844224       -0.31384415360539
C           48.82015405567071       -2.49621108030507       -0.46073340632940
C           49.77873031081581       -3.44286691883624       -0.61060874198061
C           51.04829275954886       -2.76805447525388       -0.57175338419069
N           50.84551743995591       -1.43242626703796       -0.37895346088103
C           52.29438307164355       -3.38684115454459       -0.70001800955769
C           52.31017308759722       -4.84616435041987       -0.95648794144236
C           52.92890311014476       -5.71342363429438       -0.05063311982123
C           52.94018224956607       -7.07742150729112       -0.27818896404764
C           52.33218353026262       -7.57902225798167       -1.42546691452286
N           52.34033761812844       -9.01093978618874       -1.66938536727205
O           51.80000303031870       -9.40883077955393       -2.66930963546662
O           52.88604027155656       -9.71144213159412       -0.85619668895020
C           51.71554956599617       -6.73281046241987       -2.34258552941375
C           51.70514371854984       -5.37083518442565       -2.10269436336631
C           53.52766777868840       -2.73741277771190       -0.60467127135762
C           54.80140807931939       -3.35832529412345       -0.83332616327159
C           55.74681910191468       -2.40173279416796       -0.65367458567781
N           53.71653793530828       -1.41467753029395       -0.30551807276016
C           55.05997962372124       -1.19160710406442       -0.31600900357915
C           55.69668365615927        0.02764839942978       -0.02657171183226
C           55.03559468999084        1.23774837067684        0.24583137244529
C           55.69551143079948        2.45589234299898        0.60746118281590
C           54.73159383032301        3.39749161370374        0.76735330895179
C           53.47361929503159        2.75990494745805        0.50013489768871
N           53.68992746077358        1.44174024953356        0.19888349009373
C           52.22848478039102        3.39038498865864        0.56253711460588
C           52.21141455609327        4.84538401743476        0.84250810178180
C           51.55743754543195        5.33740083387681        1.97640732306229
C           51.53427496619524        6.69436056826111        2.24185669179474
C           52.16660766557815        7.56874918027887        1.36262439209780
N           52.13947629729591        8.99561963734949        1.63322578567589
O           51.56061810200158        9.36401484255520        2.62287213614669
O           52.69707722626885        9.72175119741420        0.85120016399909
C           52.82289635644484        7.10000842317468        0.22812284775541
C           52.84474017024562        5.74056080912664       -0.02512811024747
C           50.99625884442657        2.75608870527517        0.38395465949098
C           49.71775870781762        3.41505540782532        0.37846322630158
C           48.77762199178664        2.45811819360778        0.18384140249560
C           49.47291902687169        1.20931111318793        0.05589792393109
N           50.81771667408276        1.41967885202613        0.17415245882332
H           47.77467372919717       -0.02444814779351       -0.16344165980931
H           47.74972897266244       -2.62527025106004       -0.43816923136749
H           49.64513732560852       -4.50644444372011       -0.72492031182069
H           53.38767402832335       -5.31125611275857        0.84514345156247
H           53.41061998202934       -7.75765008733624        0.42159182975762
H           51.25406304111408       -7.14804593641617       -3.23044554375605
H           51.23914765027640       -4.70045650685073       -2.81542351893449
H           54.94941357500646       -4.38796888350882       -1.11582408209360
H           56.81564995158125       -2.49722191106809       -0.75372067276755
H           56.76007554970731        2.56614082102289        0.73504202459356
H           54.85698340757372        4.42756150806910        1.05909239062971
H           51.07901625619053        4.64519180485983        2.65942387389384
H           51.03443750669983        7.08413545802879        3.12044031617984
H           53.30435680067251        7.80191445007757       -0.44214602429989
H           53.34090653265908        5.36419373834521       -0.91213357609912
H           49.56669985692516        4.47608193682382        0.49473557059098
H           47.70738966177567        2.57435810538553        0.12006243585498
Cu          85.02490528172014        0.07475346612646       -0.02773637907847
C           88.43259579324881        0.11929444808947       -0.14136852312290
C           87.80179688759999        1.31332786849586        0.17186263727691
C           88.48049502307805        2.53461626301533        0.49942039059862
C           87.52458108180987        3.46810013501129        0.72819648167789
C           86.25268464976024        2.82775573975749        0.52608041221448
N           86.45127406374358        1.51709670410489        0.20313595809387
C           85.00772012144212        3.44960497149702        0.64626792373437
C           84.99449977726444        4.89983543176220        0.95081783237352
C           84.38333494784546        5.36801669139872        2.11824623360964
C           84.37292305466445        6.71887348360867        2.41381598435854
C           84.97475875129749        7.61130748587450        1.53127535890976
N           84.96696107430253        9.03132096562764        1.83697091909336
O           85.50947490613959        9.77198313547628        1.05789910189302
O           84.41981577928048        9.37966094379530        2.85154092192861
C           85.58467034703716        7.16681724899850        0.36174394812694
C           85.59378556377469        5.81321532606568        0.07808280292483
C           83.77251728683409        2.81286890634607        0.50126369037297
C           82.50302271368547        3.48065038671178        0.52645013338435
C           81.55283785745364        2.52888398005635        0.35007438685160
N           83.57489828330121        1.47344451873629        0.29473283483059
C           82.22875910879445        1.27513682125842        0.21445295566738
C           81.58186792865078        0.03488606883668        0.06089876553912
C           82.24819969622931       -1.19245872292788       -0.11306490131283
C           81.59574190227436       -2.46308597679747       -0.19713485593698
C           82.55809454501264       -3.39479968831070       -0.41193149848648
C           83.81054806022455       -2.69704248169685       -0.46567893027197
N           83.59244416602949       -1.36035469275024       -0.26180700259619
C           85.05053005375527       -3.30354899821549       -0.68201466010794
C           85.05781969256893       -4.75598295227826       -0.97541300172243
C           85.74115706180422       -5.64443758610439       -0.13940676874763
C           85.75527974499818       -6.99965586204766       -0.41486201516572
C           85.08384491009126       -7.47088362904908       -1.53938506733725
N           85.10157769187479       -8.89235423094595       -1.83768810285626
O           85.71263934625257       -9.61116801624280       -1.08941504394813
O           84.50592250270266       -9.26367122930790       -2.81610884493368
C           84.39719128309878       -6.60368104414974       -2.38435789745359
C           84.38512134916041       -5.25106807921638       -2.09700977060370
C           86.28390515417716       -2.64838324202611       -0.64877471673755
C           87.55548570665501       -3.25620385710140       -0.93572158836242
C           88.49961976628376       -2.29629485858288       -0.77864590793625
C           87.81300996287825       -1.09160053726735       -0.40903680914507
N           86.46938936646775       -1.33099925664963       -0.34606331204734
H           89.51676705859019        0.13349358837320       -0.17932129938714
H           89.55170567134981        2.64597590974995        0.55495199949256
H           87.66152655492003        4.49690912498786        1.01960319265833
H           83.92925765899035        4.66152164222084        2.80330269899166
H           83.90779875864465        7.09002427638504        3.31912872633154
H           86.04149668058331        7.88253623624104       -0.31112138541291
H           86.05400273854862        5.45605356606573       -0.83578653511216
H           82.35998668928872        4.54249317254371        0.64355603740253
H           80.48553550701250        2.66108057537528        0.30679978912355
H           80.53575280516736       -2.61921625011900       -0.09147192313421
H           82.43506153032295       -4.46140017856970       -0.50652628004974
H           86.24992325147088       -5.26672907601178        0.73981108552671
H           86.27795847735754       -7.69613844379581        0.22965472615249
H           83.88517427803210       -6.99535629777536       -3.25506735939647
H           83.86544817410261       -4.56368882986471       -2.75433213589898
H           87.69945393971184       -4.28272542620436       -1.23173241001558
H           89.56695896492533       -2.37955314383259       -0.90837258253860
C           57.10644719716028        0.03508482594425       -0.00700392099759
C           58.32327889675012        0.03817981712696        0.00563308982908
C           68.02033821303915        0.00690046327019       -0.01509302821095
C           69.23816443919137        0.00024057939730       -0.01167475201610
C           78.95146003605561        0.00952878820550        0.07975411041617
C           80.16995496487449        0.02108397845537        0.07755747204017
Cu          63.17060669799866        0.02435577131645       -0.00772452892369
C           59.73255947433140        0.03611698764369        0.00925481049988
C           60.38039974153175       -1.20522537820778        0.14118748515253
C           59.71099512968574       -2.44988877687769        0.37096916457390
C           60.66419880975369       -3.41611231751271        0.38744075779314
C           61.92365751805261       -2.76549028157728        0.16322587418383
N           61.72077991529714       -1.41807406138648        0.03745355383953
C           63.15945442100584       -3.41314422936353        0.08202841226011
C           63.15402658343086       -4.89390409755033        0.11976003267149
C           63.85219956122111       -5.57794760399008        1.11994630214334
C           63.84624986143103       -6.96017349296300        1.16217857681362
C           63.14130585146108       -7.66589375323204        0.19133097991301
N           63.13373154858223       -9.11823998141759        0.22947912390561
O           62.51407030787438       -9.69446643953295       -0.62709962887354
O           63.74662596751809       -9.65493883401473        1.11620136458807
C           62.44295908279277       -7.00488365893781       -0.81509227425691
C           62.44974516662873       -5.62231657281021       -0.84423157107820
C           64.39916084626670       -2.77864795126574       -0.03153120202414
C           65.65383965226681       -3.44869211370906       -0.22227633533573
C           66.61342137678348       -2.48937983087701       -0.25594730005191
N           64.61210305045311       -1.42760015719113        0.02509384676561
C           65.95374080714947       -1.22982883173070       -0.08905325048404
C           66.61166320753640        0.01215990808258       -0.01600848383999
C           65.96244224153654        1.25882203902822        0.05403296916097
C           66.63130492065277        2.51539122260930        0.20597074213949
C           65.67845018513886        3.48108925668921        0.16453781764376
C           64.41821528562875        2.81776929793982       -0.01227555724571
N           64.62145616270153        1.46491374097519       -0.05580332435459
C           63.18237934452774        3.46081839717329       -0.12188711247763
C           63.19043655284882        4.94053338023122       -0.18988586817025
C           63.88130218185430        5.59338375572441       -1.21576933942401
C           63.88465655612985        6.97397583272256       -1.29406224310549
C           63.19671252111838        7.70977246389812       -0.33348009454927
N           63.19602500649513        9.16052440290413       -0.41166841482710
O           63.79911219837409        9.66927445214077       -1.32117099744777
O           62.59136414546126        9.76355190402011        0.43703227165670
C           62.50813028796064        7.08025824967351        0.69948895091608
C           62.50555500995614        5.69883320921641        0.76481380716801
C           61.94036037178198        2.82271865946294       -0.17828976351810
C           60.68203239427757        3.48123706024109       -0.38632006183085
C           59.72229249442594        2.52219239853821       -0.34967262061407
C           60.38663179286241        1.27350148181150       -0.12656108674153
N           61.72966396576825        1.47753737761094       -0.04105121428900
H           58.64914350129429       -2.56172078462378        0.51786879296415
H           60.53078983089566       -4.47229181990459        0.55652265775184
H           64.38711639698269       -5.01662481146886        1.87711111024435
H           64.37832308618947       -7.49863011429881        1.93718409622035
H           61.90572794037775       -7.57768154644076       -1.56135084780694
H           61.91970781154326       -5.09586753375873       -1.62941150412179
H           65.78002959303922       -4.51297636651775       -0.33739899673466
H           67.67402869671220       -2.61632046745868       -0.39751711463076
H           67.69327694300023        2.63640981175974        0.34209578952624
H           65.81232342209405        4.54576445882936        0.26668748144514
H           64.40240233731190        5.00848119554104       -1.96475386221121
H           64.41008957327308        7.48811096247830       -2.08987765379773
H           61.98503102222859        7.67629793090718        1.43761186098955
H           61.98284141436524        5.19709686287587        1.57082020800000
H           60.55307178418511        4.53757720506990       -0.55774591924603
H           58.65869876864893        2.64114940398381       -0.47771155196514
Cu          74.09027468119588        0.00041716191946        0.02582130136387
C           70.64668330015495       -0.00128245616042       -0.00526116879872
C           71.30103852326354       -1.23469136338913        0.16943478291804
C           70.63869890756673       -2.47874578926761        0.42013492791479
C           71.59641182507001       -3.44015947742806        0.45147212471595
C           72.85274600457291       -2.78635489297474        0.22009400020603
N           72.64313052058498       -1.44192901210117        0.07484603119631
C           74.09124784859091       -3.42911425534488        0.14641898955518
C           74.08866597060896       -4.91010664055548        0.17931235372208
C           74.78401152713205       -5.60011991252463        1.17719555469142
C           74.78334500552809       -6.98280725750196        1.20680319781864
C           74.08622951538804       -7.68274062289814        0.22628235941365
N           74.08733227671826       -9.13545331721627        0.24924843938025
O           73.46900806731917       -9.70634015861497       -0.61151698213411
O           74.70684755340514       -9.67786790909537        1.12763461398265
C           73.38833255176336       -7.01556595959782       -0.77628310629552
C           73.38993622563541       -5.63286745576751       -0.79303011209772
C           75.32994922430052       -2.79125723681118        0.03739666699674
C           76.58698898593926       -3.46019749686802       -0.13765820995194
C           77.54508367615472       -2.49958962093077       -0.16190397392464
N           75.54070776518608       -1.43972401991962        0.09123025415267
C           76.88435930907387       -1.23943414866301       -0.00954351059400
C           77.54009457828029        0.00380385084889        0.07235891570847
C           76.87770516174378        1.24480294939954        0.13711241537715
C           77.53032709731126        2.50716897234603        0.30312239411736
C           76.57233199482469        3.46592164048733        0.23829378225014
C           75.32327052030178        2.79300249449860        0.02728216223064
N           75.53745583978183        1.44149543726175       -0.00625802173987
C           74.08895002018554        3.42913579245011       -0.13148343082281
C           74.09412405662104        4.90811965427319       -0.21035513264949
C           74.82755949083482        5.55749131665410       -1.20862571291057
C           74.83652241361763        6.93781508515902       -1.28990043636700
C           74.11017337260630        7.67704101031089       -0.36068975245005
N           74.11981230079469        9.12775438321691       -0.43893721914372
O           74.76853005836847        9.63340660765513       -1.31832132959978
O           73.47929490017236        9.73384728425812        0.38070353355175
C           73.37550209615792        7.05100672808213        0.64215310524740
C           73.36824820331026        5.66975350421474        0.71083637205455
C           72.85286067973608        2.78488199469128       -0.22317217086577
C           71.60073131803229        3.43298799736260       -0.48994438325903
C           70.64344208791128        2.47118134888735       -0.45875753395518
C           71.30251057257131        1.23201323371317       -0.17721874341922
N           72.64204241551948        1.44233038494509       -0.06058221874345
H           69.57747127728989       -2.59397314608340        0.56703650666357
H           71.46814758623660       -4.49438450443336        0.63614716860710
H           75.31303322812113       -5.04367241685763        1.94210560455204
H           75.31395145612572       -7.52613016801771        1.97945659500131
H           72.85661418397807       -7.58371490169810       -1.53008411327222
H           72.86079381334694       -5.10138187978930       -1.57544268054435
H           76.71673691566974       -4.52464923485187       -0.24659934761056
H           78.60692067270159       -2.62783719157830       -0.28533017539906
H           78.58656785587533        2.63840524536859        0.46346052001222
H           76.69626425952909        4.53136747180389        0.34400546272595
H           75.37924743837958        4.96999135400866       -1.93326838982826
H           75.39676155776779        7.44916454870882       -2.06342929902603
H           72.82214906776645        7.64960742528570        1.35573026424407
H           72.81088434784162        5.17082038783568        1.49506344169215
H           71.47470548194215        4.48361547682846       -0.69529337760021
H           69.58516280585987        2.58243090204592       -0.62797389389332
