264
 energy: -515.221389068009 gnorm: 0.000517106698 xtb: 6.5.1 (b24c23e)
Zn          46.01737610809371        0.00215164091356       -0.05408734885754
C           42.60879133877606        0.03845952242202       -0.13451358608954
C           43.23970126400927        1.27568877550278       -0.08769829699836
C           42.56624431212317        2.54291755078888       -0.03291943734950
C           43.52560506452260        3.50054807075930        0.01444348949075
C           44.79849673564514        2.82989125854611       -0.01987162888793
N           44.58938606383504        1.48271001627384       -0.07310637358199
C           46.04975749622814        3.45728098315472        0.02324677799489
C           46.06150954193739        4.94255860751100        0.05796944564124
C           45.52589069688318        5.67222751681726       -1.00352744580598
C           45.53618474400972        7.06175829512583       -0.97058932689947
O           45.02492239044103        7.78043580588166       -2.00028550614773
C           46.07653456224316        7.72706521039166        0.13095273370498
O           46.06838626277311        9.09774189544879        0.13833607473480
C           46.60869411714634        6.99874675187281        1.19165115925184
O           47.11692372502469        7.72105861819266        2.23975296634757
C           46.60701787892635        5.60976676164777        1.15798445800273
C           47.28796429086108        2.80607646487751        0.03673747714205
C           48.56884504046153        3.45704251117612        0.02803369359139
C           49.51386350283114        2.48229245246886        0.03136074452291
N           47.48019964967131        1.44976527227775        0.03245087798352
C           48.82150597204869        1.22735180800913        0.03373121701697
C           49.45135505244522       -0.03418597512599        0.02443131034046
C           48.79610804619033       -1.28198583979626       -0.00781628653137
C           49.46303159355999       -2.55035728123052       -0.04405302305156
C           48.49893609960586       -3.50470176956894       -0.09029608738313
C           47.23125902577839       -2.82815866529876       -0.07460054518991
N           47.45053959927463       -1.47650070445034       -0.02955464496040
C           45.98090678657367       -3.45240296699587       -0.13305766364184
C           45.96223426796226       -4.93779225609896       -0.16963179789543
C           46.46893738070292       -5.67326451622290        0.90178989550908
C           46.44256728910552       -7.06266970214074        0.86861953961589
O           46.92416462271345       -7.78727593624577        1.90840789291687
C           45.91520402271004       -7.72189196013175       -0.24281545663896
O           45.90463508402653       -9.09274647975006       -0.24890692372715
C           45.41360370359010       -6.98767333222417       -1.31417724351699
O           44.91589015233568       -7.70394078357660       -2.37173574057982
C           45.43121669274279       -5.59885226303174       -1.28045670298430
C           44.74253099390042       -2.79858578301402       -0.16099299204964
C           43.45657275078153       -3.44436502557825       -0.17269908708561
C           42.51633407205902       -2.46635751631966       -0.17613333276016
C           43.21487515077320       -1.21199956176837       -0.15787343540752
N           44.55999922457173       -1.44670530712314       -0.14722265450798
H           41.52319756051143        0.04952194056814       -0.14348719565936
H           41.49511230548730        2.67113660191314       -0.02500224909938
H           43.38820705766499        4.56806142725218        0.07826428755816
H           45.11610839932085        5.16650671937845       -1.86832257852651
H           45.12514776509497        8.72403958063335       -1.79229297364843
H           46.47507248384073        9.39373543841611        0.96818192863805
H           47.46399668528881        7.13455161074824        2.92454634345760
H           47.01056085894842        5.04933985580468        1.99321604076718
H           48.72429573487655        4.52376601753578        0.00692965082021
H           50.58629337591002        2.59584760821919        0.02492287497506
H           50.53296997992990       -2.68526554964714       -0.04055811407436
H           48.63262085229169       -4.57321497114340       -0.14169114197715
H           46.86766785006452       -5.17223824041347        1.77442676595306
H           46.81686775769941       -8.72958022993648        1.69814119998406
H           45.50759026692393       -9.38378840602596       -1.08516109600117
H           44.59386524560251       -7.11282162076409       -3.06474548081886
H           45.05025713578764       -5.03389721039223       -2.12322207339705
H           43.29716872000595       -4.51085653893261       -0.16522663640027
H           41.44284106244572       -2.57358219828830       -0.18251464554862
Zn          94.16694720198865       -0.05330304639729       -0.04184712080154
C           97.57492252742307       -0.08088490563666       -0.14803874646378
C           96.94316590094385       -1.31515219196556       -0.23995124190528
C           97.61591833659514       -2.58031735428883       -0.33532802468225
C           96.65613347186617       -3.53716199568413       -0.38985926742913
C           95.38355254182355       -2.86701728654731       -0.33811214991244
N           95.59342896963936       -1.52253719258460       -0.23914065118078
C           94.13196484789731       -3.49511751594684       -0.35741793699418
C           94.11871936111984       -4.97482264394545       -0.48981762191060
C           94.64972901609934       -5.58163441272433       -1.62821084566718
C           94.63785196599534       -6.96611472749670       -1.75095430885222
O           95.14523899354917       -7.56551206614376       -2.85621077655414
C           94.09997427292458       -7.75014402632845       -0.72921702945782
O           94.10608014155743       -9.11313013881529       -0.87547106015249
C           93.57225400427660       -7.14465008852731        0.40811604755820
O           93.06586423805199       -7.97919838304070        1.37044823681505
C           93.57606149391512       -5.76069986023807        0.53040453038130
C           92.89445297354857       -2.84927044892541       -0.26237062345536
C           91.61284548675532       -3.49459950469417       -0.33761485323716
C           90.66880616685327       -2.52616850200252       -0.21880593994271
N           92.70347831048255       -1.50115604043246       -0.11189437615340
C           91.36237980205443       -1.27981644845920       -0.07828459791051
C           90.73362176171656       -0.02516251170749        0.05814211240171
C           91.38982361020962        1.21803062181356        0.16482299334523
C           90.72390107082784        2.48263589153519        0.27550710235366
C           91.68867242546473        3.43550228669561        0.33496220581665
C           92.95578901423191        2.76091309403848        0.26906092680647
N           92.73545096122757        1.41303089315293        0.16042935143660
C           94.20637429563915        3.38726194043813        0.27831977690494
C           94.22553171279279        4.86679252531567        0.41472982326746
C           93.72272758096943        5.47201809052086        1.56648319858736
C           93.74825955189500        6.85584662739712        1.69530731695952
O           93.27038006441273        7.45372401582820        2.81423149601335
C           94.27082216718735        7.64052555107291        0.66608419860185
O           94.28044151601820        9.00260572933946        0.81964383801944
C           94.76853671416272        7.03648580206113       -0.48542302890797
O           95.26153628283623        7.87147226462511       -1.45435193890625
C           94.75193173587161        5.65313470447240       -0.61357564425494
C           95.44400905462773        2.74060046393400        0.16912635911763
C           96.73048769617482        3.38287160882805        0.22588521696211
C           97.66972751511675        2.41165995561491        0.10269709027460
C           96.97003738899295        1.16399033525585       -0.02168350270004
N           95.62524952409034        1.39626488886865        0.02416472254683
H           98.66042450310300       -0.09108142751259       -0.16578302993665
H           98.68697033891485       -2.70860238343291       -0.35036796137773
H           96.79334034313914       -4.60498071512177       -0.44880455927735
H           95.05713337667137       -4.98275135144229       -2.43251379556949
H           95.04445162926693       -8.52633435747957       -2.75456576027598
H           93.69994972213557       -9.49951693652796       -0.08337165441125
H           92.72005001961826       -7.47209679290891        2.11654991165162
H           93.17617587174463       -5.29709583743196        1.42465529505472
H           91.45613207211987       -4.55195578124635       -0.47884194755640
H           89.59624055799070       -2.63781837043862       -0.23216956138630
H           89.65412737558067        2.61690729381150        0.29782854744052
H           91.55582133053601        4.50299655667530        0.40571089425715
H           93.32742545781720        4.87237966196118        2.37622629140897
H           93.37387306785163        8.41442701690060        2.71402388048147
H           94.67156811773025        9.38999982515761        0.02051378523050
H           95.57932160647785        7.36558787679732       -2.21360392789793
H           95.12967330609735        5.19055317482622       -1.51794659781552
H           96.89088307174616        4.44111980368840        0.35722520336209
H           98.74327880351512        2.51852190926795        0.10284131742729
C           54.65333271882617       -0.05688770844509        0.02837050815665
C           53.42464254087994       -0.05806258994696        0.03411401551453
C           52.08056903350264       -0.05218006377590        0.03557913659687
C           50.85630998560138       -0.04701422570802        0.03291721317763
C           55.99724506048998       -0.05662441117586        0.01824701829288
C           57.22160976514171       -0.05393792649100        0.00558223864044
C           70.70729466318870       -0.01584537068711       -0.07584291985637
C           69.47840562492799       -0.02214693583795       -0.07668936068792
C           68.13474517984803       -0.02638145140730       -0.07565642098702
C           66.91019693382773       -0.03174351244242       -0.07339466622815
C           72.05094036854352       -0.01053593120703       -0.07227976679890
C           73.27549203303145       -0.00635528429973       -0.06571003927214
C           86.76050673261916        0.00911925569543        0.08402667472622
C           85.53182867216995        0.00915983676317        0.07702350057608
C           84.18792900581008        0.01086525296770        0.06532572333304
C           82.96356130834334        0.01169730347543        0.05288655277285
C           88.10456219182909       -0.00036272761821        0.08505691172172
C           89.32873683973504       -0.01222495698606        0.07420190002336
Zn          62.06618672002119       -0.04305835532860       -0.04462935300373
C           58.62588509592232       -0.05085828257980       -0.01054055265467
C           59.26866833261209        1.20010516552410        0.09366942157390
C           58.58990115223258        2.45162174554231        0.25088609864041
C           59.54432515213389        3.41617542736789        0.30711680043518
C           60.81572129425528        2.76198056001884        0.17502050151414
N           60.61118009759379        1.41288483308559        0.05714134289301
C           62.06035203114894        3.40228832935575        0.18741773002727
C           62.05578941253353        4.88418492989429        0.28277314078331
C           62.65204267741819        5.52309993776304        1.37042678586189
C           62.64924223366771        6.91139349084814        1.47617157543587
O           63.21808504322775        7.54342879035080        2.53619623043670
C           62.04953385552569        7.68221026192735        0.47519616339097
O           62.03383325219409        9.03900217019200        0.54696060472423
C           61.45886022143893        7.03535689847301       -0.61341497037457
O           60.89275568738373        7.84843795928224       -1.56189027739625
C           61.45241125289173        5.65129731465039       -0.71555212452795
C           63.30720791272588        2.77078941625422        0.11789473947020
C           64.57687595236976        3.44055101632274        0.07985655087404
C           65.53440612899475        2.47992962018197        0.01234638358074
N           63.51613045514584        1.41841987850272        0.05538602285610
C           64.85935417182559        1.21651522804699       -0.00281238166682
C           65.50605330197929       -0.03530746957581       -0.06709403793288
C           64.86409237319438       -1.28910343512332       -0.12756066442493
C           65.54380167378744       -2.55001411575756       -0.16490596644722
C           64.58938645029022       -3.51348217824956       -0.22918163844060
C           63.31659899456751       -2.84821738516453       -0.23981689465852
N           63.52080289864249       -1.49580533688408       -0.16733710489414
C           62.07173271706869       -3.48400238259303       -0.29266165693103
C           62.07285981956042       -4.96646510214754       -0.40146240344530
C           62.63184512161691       -5.58297948655910       -1.52133777999319
C           62.61762548444624       -6.96866987176369       -1.62960187944954
O           63.14073546827732       -7.58022212894327       -2.71880846574196
C           62.05097170497645       -7.73902001272399       -0.61223895164981
O           62.06182846230014       -9.11971178700653       -0.75696715614449
C           61.52699840306016       -7.12604417453106        0.52410034470990
O           61.00438927133337       -7.87642167439982        1.53651529261166
C           61.52080769532472       -5.73895208242384        0.62055660072776
C           60.82460328162200       -2.85124128993584       -0.25108566054760
C           59.55391312904834       -3.51274407301407       -0.35230161615473
C           58.59608800250724       -2.55376573070238       -0.27181866229736
C           59.27174610452456       -1.29819767065198       -0.13062936906475
N           60.61594374498989       -1.50349670008983       -0.12712205793546
H           57.52007132920426        2.56986511456747        0.31753728231364
H           59.40046610267525        4.47631347685295        0.44041226670809
H           63.10778830635751        4.93502532251017        2.15914995172500
H           63.59886110147313        6.90835769438590        3.15678448549250
H           61.57454415135499        9.37813927739139       -0.23817092099363
H           60.50715604871429        7.32555341623351       -2.27670700718839
H           60.99885685520361        5.17416703071890       -1.57640314699987
H           64.71745093094992        4.50939990898890        0.09006934942174
H           66.60410323846369        2.60913376779076       -0.03229181049298
H           66.61459624318829       -2.67489358849047       -0.13833815799173
H           64.73293591649758       -4.58157798185932       -0.25640344492908
H           63.05580137633559       -4.99288440584389       -2.32350778746707
H           63.03928299453364       -8.54034172683754       -2.60665826494741
H           61.21400438623871       -9.49841777594552       -0.49030433776828
H           61.30514988711947       -8.79318645543199        1.46291117681382
H           61.10958545063176       -5.27266305795472        1.50648863043901
H           59.41364504469319       -4.57413282448165       -0.47901219259620
H           57.52555767065507       -2.67766713876055       -0.31093831708336
Zn          78.11980761306698        0.00286743706754       -0.01547758053698
C           74.67956582354813       -0.00332989045454       -0.05514787527545
C           75.32046791139598        1.24731069687035        0.06471706117870
C           74.63898021542688        2.49896267158388        0.20951446534925
C           75.59237690013860        3.46298634474967        0.28719158712257
C           76.86606913986586        2.80841666782395        0.18090628994948
N           76.66337869497630        1.45941540146884        0.05686879038723
C           78.11028663028648        3.44795053237540        0.21949025217850
C           78.10598919510562        4.92989754136867        0.31315396091386
C           78.68400286349483        5.56969333574553        1.41013803212984
C           78.68569753172517        6.95832668477850        1.51125706804226
O           79.23765417257729        7.59135761009053        2.57953446428636
C           78.10903069934996        7.72855429060677        0.49634422158840
O           78.09989972972241        9.08560394416747        0.56255762542424
C           77.53528734363968        7.08073692688574       -0.60073121107858
O           76.99136632459107        7.89318160270388       -1.56256506728835
C           77.52431377807109        5.69638539508464       -0.69844308079561
C           79.35820270374217        2.81565317708698        0.17505658161080
C           80.62861000226792        3.48493971846853        0.16188481818158
C           81.58695088226789        2.52396663670096        0.11369297377192
N           79.56768203110759        1.46335410333174        0.11721204101350
C           80.91189105880198        1.26087817320524        0.08559571403840
C           81.55928080495457        0.00904043947968        0.03406812359929
C           80.91829388760966       -1.24446065995997       -0.03916185936831
C           81.59800414167852       -2.50558772511632       -0.06218322181162
C           80.64470117954421       -3.46862455470281       -0.14688160737355
C           79.37280271708603       -2.80274681318151       -0.18500489401684
N           79.57589669941844       -1.45066766357327       -0.10733951915654
C           78.12891342771472       -3.43807850444474       -0.26661961695438
C           78.13295398267641       -4.92018490119215       -0.37890865449369
C           78.72209765850489       -5.53312914983769       -1.48522776228314
C           78.71308601411528       -6.91856274948151       -1.59754546308449
O           79.26632481544939       -7.52617779624897       -2.67385304158669
C           78.12047184779662       -7.69213533064669       -0.59765645394012
O           78.13690398313351       -9.07261181756666       -0.74452346498459
C           77.56566064135414       -7.08279729303031        0.52599109949853
O           77.01798172817959       -7.83762747826474        1.52188686735090
C           77.55500218522296       -5.69606253861380        0.62620537289717
C           76.88164702525599       -2.80482306034697       -0.25228885824883
C           75.61307546727227       -3.46524695934232       -0.38334024972669
C           74.65430286953712       -2.50578202648014       -0.32276748236879
C           75.32742741928688       -1.25085643938829       -0.16416862559472
N           76.67092859346621       -1.45695392446627       -0.13087545407416
H           73.56801871837929        2.61751663917472        0.25367982795264
H           75.44632251904423        4.52299833535916        0.41911669954027
H           79.12229978523776        4.98220725834943        2.20912372161590
H           79.60463795966943        6.95678985234773        3.20888326441595
H           77.65679127487923        9.42433283905338       -0.23199970047878
H           76.61546850432788        7.36965083945463       -2.28206006579742
H           77.08515520919909        5.21844293270792       -1.56628067832187
H           80.76946850451412        4.55370591946568        0.17424547139420
H           82.65736167724511        2.65270498947862        0.09001106763079
H           82.66791581093221       -2.63109611976085       -0.01297643552984
H           80.78857319375591       -4.53674081144398       -0.17085748170198
H           79.16632201930004       -4.94029671699109       -2.27430639345110
H           79.16471549420928       -8.48685953004863       -2.56692066344514
H           77.28097810608715       -9.45170864964938       -0.50598418269205
H           77.32542602906800       -8.75272964441391        1.45426044600353
H           77.12030063535262       -5.23268554909807        1.50240319918899
H           75.47494490606236       -4.52630416113606       -0.51510089650729
H           73.58485967982496       -2.62893049536818       -0.38644392506958
