124
 energy: -235.329376063925 gnorm: 0.000730823025 xtb: 6.5.1 (b24c23e)
C           13.81392187883567       -0.13987947951746       -0.06696237268567
C           14.42920758830586       -1.35004821844374        0.22462153293980
C           13.78936037339816       -2.59932060936868        0.46047662228738
C           14.75649262274871       -3.51877316699934        0.75261759666507
C           16.01791734915786       -2.85711348974916        0.71666568281130
N           15.77125137895800       -1.55853423109641        0.37536372495700
C           17.28144179530491       -3.39905468036136        0.97803097335615
C           17.32681333562359       -4.82150336504335        1.38639858102957
C           18.05979757552640       -5.74377070544647        0.63211780484924
C           18.10627731303550       -7.07561473088747        1.00026654939524
C           17.41793999398634       -7.48986754631464        2.13714061114712
N           17.46412985264944       -8.88736830593904        2.52936127130630
O           18.10804158124159       -9.63799085040982        1.84235931073845
O           16.85314643656591       -9.20979896486007        3.51585623305065
C           16.68612087108999       -6.58797358837776        2.90433242689244
C           16.64146003606422       -5.25905088850796        2.52410701473122
C           18.49215466044472       -2.70514518553672        0.88398001391278
C           19.77322495449892       -3.26241157231287        1.27865863818622
C           20.69625589863401       -2.31327516700751        1.02035620293382
N           18.65562455788373       -1.43406644719552        0.42811090379885
C           19.98062270624267       -1.17949870169085        0.47076837339615
C           20.62710959545483       -0.01027984880498        0.02087504901678
C           19.98358745287903        1.15877818446834       -0.42917559400338
C           20.61006625033463        2.33068292221784       -0.92722801002973
C           19.63678234729575        3.25576997358431       -1.18477534108652
C           18.38224121890583        2.67472464421470       -0.85155864618352
N           18.64101817247674        1.40160474041776       -0.42029387791872
C           17.11878413341149        3.26978865252810       -0.95785994797757
C           17.08921369112525        4.69748388779832       -1.34692980219504
C           16.39619898908225        5.11018331105018       -2.48962698131695
C           16.36172876686769        6.44545458867321       -2.84754282998871
C           17.02286903528763        7.37903911959503       -2.05436132909786
N           16.98389266637269        8.78346695691777       -2.42153770956551
O           16.36139899038161        9.08488805037063       -3.40743319582747
O           17.57631292939580        9.56020933592785       -1.71723534977096
C           17.72000390789849        6.98976927160003       -0.91405971108594
C           17.75239323687396        5.65160253117880       -0.56777484290984
C           15.90131317995478        2.62053485023702       -0.72520783956687
C           14.59865402826147        3.26660982457637       -0.79224487843302
C           13.68383308298595        2.30621658740943       -0.55350131202309
C           14.42653977018207        1.07953212397202       -0.32220227101036
N           15.75936563150023        1.31081726819714       -0.41539050468146
H           12.72919062310447       -0.15725793296278       -0.09076312849125
H           12.72487077509789       -2.76138881120524        0.40553998662415
H           14.61460651774740       -4.56564380771327        0.96636297697146
H           16.48749616114410       -0.85031910781006        0.25509854434428
H           18.58124033014654       -5.41041521969600       -0.25754785156329
H           18.66601945958972       -7.79787429145834        0.41828319512930
H           16.16449010402716       -6.93463971692896        3.78831435668348
H           16.08804908907343       -4.54513623178277        3.12301474586027
H           19.92296196627384       -4.23683828957891        1.71440725272438
H           21.75845399623690       -2.34745360610553        1.19692650134151
H           21.67038077798534        2.44242872359465       -1.07937202692663
H           19.77276069009604        4.24680059526206       -1.58578952568733
H           17.92868545190839        0.73724560884084       -0.13635555008434
H           15.89746625000608        4.37271813397585       -3.10751546664683
H           15.83140857372734        6.77354319904963       -3.73344059364293
H           18.22349807655576        7.73600062784251       -0.31128328040849
H           18.27848731375616        5.33860421196331        0.32667067624811
H           14.43157149390576        4.31440576691306       -0.98266018469066
H           12.60916003388558        2.39051528496313       -0.51907650639786
C           31.47817712111572        0.08570062618205       -0.12944767945826
C           30.86286629121278        1.27393509891196       -0.50036465258090
C           31.50268266413113        2.46716307931848       -0.93917532688526
C           30.53552926975441        3.40618835049276       -1.16034470704766
C           29.27412641861631        2.81986698878353       -0.85151204339864
N           29.52082088815347        1.53020727971410       -0.47793646472994
C           28.01059368610458        3.41911039488233       -0.90532106497020
C           27.96520827462701        4.84947093325286       -1.28504598926638
C           27.23227815118668        5.25377412483660       -2.40582435766338
C           27.18580442713704        6.58574334428106       -2.77353213322485
C           27.87412033357971        7.52483202764898       -2.01048356453377
N           27.82825019120457        8.92542833726316       -2.39143989860615
O           27.18393451351182        9.21709682896444       -3.36605586399904
O           28.43853572202843        9.70862302433797       -1.70981621386735
C           28.60577392127280        7.14464812511726       -0.88900792023546
C           28.65046201844374        5.80898920602386       -0.53319002208921
C           26.79989367319201        2.77529986783246       -0.62984837856171
C           25.51880440590280        3.45610678051530       -0.57731524252790
C           24.59579149476831        2.50896830172555       -0.31170943053066
N           26.63642642370294        1.45042520941990       -0.36876725057879
C           25.31143478046336        1.25384995432295       -0.20142738122981
C           24.66496418910312        0.01948475084844        0.01267414731314
C           25.30851209902143       -1.21480624402963        0.22653006411314
C           24.68206543833545       -2.47620886073308        0.40064838648142
C           25.65537685328659       -3.40229906458892        0.65446941080198
C           26.90990332986136       -2.73257197527109        0.64217268671042
N           26.65108764098143       -1.41860841210983        0.35879598852737
C           28.17337357696245       -3.29780098544222        0.85639313959671
C           28.20297185501291       -4.72275792429682        1.25536396021135
C           28.89602724588562       -5.66348054102951        0.48655845077185
C           28.93047885417684       -6.99314493276347        0.86477069152305
C           28.26936238710617       -7.38721198620994        2.02470426945599
N           28.30872194179579       -8.78088815904812        2.43072338194631
O           28.93047941353503       -9.54578259999031        1.73885750247438
O           27.71541111310596       -9.08620472061330        3.43329670424556
C           27.57206655022624       -6.46785016895555        2.80341111913179
C           27.53970407141530       -5.14166825290214        2.41373580020175
C           29.39083504417199       -2.62117251578524        0.72276145357625
C           30.69350439364514       -3.21002130274312        0.99686909861484
C           31.60830812831107       -2.26326896131557        0.70869348331472
C           30.86558417241817       -1.09181194919242        0.27751208801316
N           29.53275935219694       -1.33814583121509        0.31631741113652
H           32.56290548299172        0.08842793621159       -0.15883891898978
H           32.56716460277183        2.57808437133062       -1.06954515634596
H           30.67739438124160        4.41435056828910       -1.51423618544424
H           28.80461121555530        0.86065152896712       -0.21758908209443
H           26.71090196434325        4.51099825851327       -2.99826503412555
H           26.62618153776418        6.90684591839084       -3.64381090054369
H           29.12737183810511        7.89591321075547       -0.30829052285202
H           29.20378497928382        5.50374473507899        0.34731182201639
H           25.36905619849777        4.51603517364652       -0.70353598511546
H           23.53359808096057        2.62893313319929       -0.17765726022872
H           23.62175528252034       -2.65023427484497        0.32743110542382
H           25.51942662116408       -4.45865357048101        0.81901306848099
H           27.36339326069385       -0.70268036354918        0.26143798467549
H           29.39480768900063       -5.34772635325374       -0.42222759386366
H           29.46089461234056       -7.72942707193753        0.27295170361470
H           27.06856814882657       -6.79886578087755        3.70375432842707
H           27.01357263223785       -4.41394165585595        3.02067518963199
H           30.86060752455678       -4.20696339167018        1.37135107094079
H           32.68298269549894       -2.31794001458762        0.78146482419453
C           22.03709999878406        0.00234301792026        0.02115324448223
C           23.25497441118416        0.00877916013177        0.01938075414366
