185
 energy: -335.201389838054 gnorm: 0.000701671691 xtb: 6.5.1 (b24c23e)
Co          29.83283163843961       -0.04239429461953        0.00166597919491
C           26.44893681005566       -0.01877784880670       -0.11429590174848
C           27.07431653711420        0.67105502058811        0.90157543121041
C           26.37761552919680        1.38134976646993        1.93035020348453
C           27.31497396612389        2.05475068187774        2.63901978914818
C           28.57800116041266        1.75685010640166        2.03595720160376
N           28.42941035135361        0.87503528969208        1.00233697946987
C           29.76627619553368        2.40221035540832        2.37655468972480
C           29.74052756116126        3.40380697221276        3.37070183154893
C           29.71933806606080        4.26444647705864        4.22561915291875
C           29.69796421792257        5.26813966669263        5.22120825867558
C           30.84973503943431        5.99636602449310        5.54108045701168
C           30.77660271060473        6.96861152896470        6.52263088933545
N           29.65784042531873        7.24995962250053        7.18573194295752
C           28.55878929914083        6.56169185636701        6.88780452846456
C           28.52536244545702        5.57050435323704        5.92312213468121
C           30.97681776783628        2.09659287623968        1.75775092762430
C           32.20508397895244        2.76388016213477        2.05433987753872
C           33.17946884384912        2.09713057709698        1.38871896554545
N           31.18345955283870        1.05983302141285        0.88467048866788
C           32.53948290985360        1.02486350051258        0.69480553684272
C           33.23727190362914        0.00754373168000        0.04263132931651
C           32.58247333937702       -1.03350016659828       -0.61833164138727
C           33.26517745186340       -2.10709068866735       -1.26798085739456
C           32.32486777288619       -2.81233451032429       -1.94310913028795
C           31.07517642462120       -2.16279792618649       -1.70217254820024
N           31.23477923772680       -1.09878740640655       -0.85214602672165
C           29.89452110711364       -2.49793107563432       -2.36212861078132
C           29.91991136684049       -3.52232157341081       -3.33285222643482
C           29.94163936639309       -4.39883156993059       -4.17152913376322
C           29.96988549405076       -5.41764112054800       -5.15154869573708
C           31.15277131774765       -6.10331530808114       -5.45131051664690
C           31.12795255594708       -7.09005193053940       -6.42076827929718
N           30.02759424200346       -7.42495186555256       -7.08971776328657
C           28.89891152752461       -6.77814885145564       -6.81015291379020
C           28.81685669350632       -5.77645942828372       -5.85935040498272
C           28.68936790187096       -1.84841706942343       -2.09691577216718
C           27.46192436581715       -2.15314765654484       -2.76654966664283
C           26.49060974513582       -1.45116521432544       -2.13594375122784
C           27.13025825827389       -0.72301571800879       -1.08260634648323
N           28.48819313687002       -0.93611467773650       -1.09945037331374
H           25.36581973464557       -0.01334212434332       -0.14886540851379
H           25.30832467466383        1.36234549355230        2.06844425938114
H           27.18191082962013        2.71058128122830        3.48448631960716
H           31.78188601516410        5.79942918980988        5.02545581075276
H           31.65455989162265        7.54929298501142        6.79063408247004
H           27.66388086737280        6.81683657914247        7.44807125741452
H           27.60801692798488        5.03433768593565        5.71211726329150
H           32.29414509412195        3.62248110449402        2.70024622912804
H           34.24014851192140        2.28922719974642        1.37195132499244
H           34.32831046286511       -2.27752633720489       -1.21431900583971
H           32.45082828919923       -3.68541614884593       -2.56294928727231
H           32.07157112671354       -5.86213843447976       -4.93055802087967
H           32.03118207856532       -7.63768741493497       -6.67398098037783
H           28.02013698243973       -7.07662116521802       -7.37453530017865
H           27.87671909589880       -5.27516373165758       -5.66342328678881
H           27.37379261355812       -2.83030503047974       -3.60101729363910
H           25.43180498017396       -1.42706281812135       -2.33892520457621
Co          61.69578309496370       -0.08342495565592       -0.03789144536292
C           65.07772137469644       -0.21546956241845       -0.15618784122918
C           64.37329822561408       -1.39750931857617       -0.22459731323495
C           64.98886705202816       -2.68569209764327       -0.32559566292763
C           63.99147682903872       -3.57510251930667       -0.54488333462496
C           62.77275524830313       -2.82589038720716       -0.57529079198482
N           63.00759693472443       -1.50066939680446       -0.33805051093668
C           61.53942921640773       -3.37448926698773       -0.92481616165631
C           61.47432429007217       -4.73795857905274       -1.28448998597206
C           61.41686106314035       -5.91035155408466       -1.59154748668413
C           61.34928254907376       -7.27681066704068       -1.94865523368302
C           60.13683981938283       -7.87163542478608       -2.31664576382219
C           60.12443917369706       -9.21261360773510       -2.65693555581404
N           61.21546744028596       -9.97425504528175       -2.65267260371693
C           62.37195536894666       -9.41624212202791       -2.30391823091325
C           62.49209518774256       -8.08502271349213       -1.94673165824642
C           60.36862779831407       -2.61926589381003       -0.92617672257022
C           59.09121389181398       -3.14993522872004       -1.28445510094536
C           58.17937335567126       -2.18675860317594       -1.00640424868102
N           60.25287494832360       -1.32824516976935       -0.47834337093320
C           58.90680348217820       -1.07487380777685       -0.48129856826661
C           58.29405744166533        0.05572241863619        0.06127844057952
C           59.03024161863706        1.13538946623134        0.54994782252643
C           58.43191086974925        2.30069231984065        1.11965004767458
C           59.43244412860849        3.19423696475010        1.31364511345852
C           60.63431737641289        2.56678579468069        0.86247254297947
N           60.38625986138034        1.28858852939933        0.43322652861991
C           61.85692398950231        3.22835555593153        0.76535002204202
C           61.92437474197396        4.59556002120986        1.10980841751310
C           61.98326047060610        5.77052864901974        1.40650158406831
C           62.05164223103237        7.13948291770284        1.75355767683528
C           60.93147355704715        7.82057252669011        2.24399090013642
C           61.05115306263687        9.15992159300434        2.56951157734857
N           62.18641028774307        9.84158015742784        2.43897942101318
C           63.25577693678726        9.20123050212807        1.97330876548088
C           63.24198133450416        7.86366196977893        1.61987536993671
C           63.01794288290947        2.57900699882858        0.34811623618706
C           64.29051654617942        3.22549667003283        0.24476069233890
C           65.19996479140435        2.25461677538269       -0.00782122218898
C           64.47694052854192        1.02050522434139       -0.06072334466963
N           63.13064019537584        1.23742315340974        0.11142807853087
H           66.16014298101375       -0.26015970837743       -0.18229370706577
H           66.04981663101881       -2.86280919083526       -0.24921790765657
H           64.05578893492222       -4.64185060923992       -0.68819025269105
H           59.22431176181185       -7.28805962552902       -2.33360222609898
H           59.19783127418020       -9.69997557309784       -2.94633255110899
H           63.24212675349516      -10.06632725712294       -2.31127751884085
H           63.45401305094772       -7.67121133703225       -1.66919868156533
H           58.92933078645965       -4.13901206902552       -1.68171594541141
H           57.10857014840883       -2.21526656906755       -1.12754287651947
H           57.37908063681304        2.40870144985186        1.32496296586934
H           59.37746408428268        4.19387839085193        1.71367392012051
H           59.98732535198018        7.30360372116031        2.36601246104023
H           60.19841460805380        9.71307404212537        2.95253266451835
H           64.16537754357662        9.78747122149182        1.87935913559996
H           64.13640961117272        7.38119505028780        1.24467530937224
H           64.44852790244668        4.28488763081811        0.36864216537691
H           66.26690840765110        2.34277055943746       -0.13690196300709
C           38.43849216141384       -0.01222976566542        0.01199084332855
C           37.21113902273184        0.01720006282532        0.03825430526566
C           35.86594632864082        0.03006906913419        0.05264844783787
C           34.64246168756616        0.02506989895479        0.05400292671941
C           39.78103571001954       -0.07559484404950       -0.04039091991898
C           41.00035728964183       -0.15750335970540       -0.10694228054651
C           54.32161273722858        0.11983863546778        0.14977449680856
C           53.09422807891283        0.08544198900973        0.13762830141511
C           51.75191411256768        0.00843639696765        0.09123087398777
C           50.53436879792059       -0.09476177852291        0.02603746253729
C           55.66716517167941        0.12318187775583        0.13865992002639
C           56.88991899209677        0.10428044595770        0.10991758747082
Co          45.77352042413613       -0.51842797260552       -0.32629512185906
C           42.39514588716028       -0.29137925287239       -0.19922173801151
C           43.09050158685947        0.46327049432584       -1.14717014212022
C           42.44795780543794        1.31425487011977       -2.09811378365038
C           43.38621767364910        1.64132733025821       -3.02145293034929
C           44.60341928493207        1.02204287466587       -2.60416297579437
N           44.42068011682349        0.32254283144983       -1.44282058373201
C           45.80680592152450        1.11916829555628       -3.30477379733145
C           45.81141904352261        1.73686090001334       -4.57296842438069
C           45.81684295682300        2.26168351646590       -5.66705727506710
C           45.82530984588922        2.88098064135639       -6.93793339301565
C           47.01486794594756        3.04347035439910       -7.65740685463196
C           46.96957077804022        3.65885970643961       -8.89576197405023
N           45.84339837259228        4.10829000288744       -9.44348215910980
C           44.70833164731560        3.95721267438174       -8.76599338611384
C           44.64511286867122        3.35632557619678       -7.52133274655233
C           47.01712605240043        0.70924836848387       -2.74718711060746
C           48.28911858379662        0.98691197597169       -3.33597096346487
C           49.22305922571710        0.68245541291418       -2.40116633568082
N           47.16859533983160        0.17326254865769       -1.49465494785333
C           48.51676274400923        0.18218911108911       -1.26507033320599
C           49.14318334875536       -0.24862627216119       -0.09162649679418
C           48.44734898317527       -0.93878758461647        0.90363361579858
C           49.08609273127394       -1.56823077445140        2.01581635384789
C           48.15514563255548       -2.36535626658524        2.59699376840936
C           46.94543525889337       -2.18523103784443        1.85983879006150
N           47.12517146945975       -1.29169210796856        0.83977369170249
C           45.75198549275773       -2.84992502163144        2.14744414740442
C           45.75477873526345       -3.86711081369582        3.12484138987729
C           45.75553221756328       -4.74868043508055        3.95870219291257
C           45.75167485886014       -5.77260193696228        4.93355072828911
C           44.56651269892480       -6.42413538088010        5.29419397673223
C           44.61482421873560       -7.41930620270040        6.25411012562395
N           45.74003660212133       -7.79281334449248        6.85798127940917
C           46.87077537546006       -7.17798414227255        6.52099207936604
C           46.93068532867230       -6.17097859880867        5.57407434731540
C           44.54266234166564       -2.47578454244684        1.56350669901315
C           43.27467672346388       -2.98288917569956        1.98400158649015
C           42.33222972451887       -2.21110750034543        1.38811367872567
C           43.03072587313738       -1.26590886541810        0.57666903066516
N           44.38242241465501       -1.45304289058878        0.66470204485751
H           41.40629450655990        1.59020657695435       -2.06706880427472
H           43.28148383902926        2.25393197749742       -3.90241516811452
H           47.95416509935799        2.69218304666927       -7.24774551608288
H           47.87697249106547        3.79881734828590       -9.47604397029216
H           43.80864861144927        4.33552826590359       -9.24260949195489
H           43.69931422921015        3.25385268550641       -7.00326869283000
H           48.43077758621676        1.39373291247955       -4.32420625528756
H           50.29534464898767        0.77372934305361       -2.46421333700906
H           50.12091893822608       -1.43107087894959        2.28509443378092
H           48.26000934321102       -3.01228587678294        3.45303764881352
H           43.62820348834899       -6.15045316210665        4.82712393941740
H           43.71085210803830       -7.94161151867706        6.55352832997376
H           47.76976532702940       -7.50800058776204        7.03342880413465
H           47.87321092748825       -5.69636498303509        5.32962380053401
H           43.14028392666560       -3.80127025136218        2.67278937426790
H           41.25921364601990       -2.27026630869553        1.47325902318240
