183
 energy: -315.350676992969 gnorm: 0.000941221946 xtb: 6.5.1 (b24c23e)
Co          23.79002931424785       -0.01225689556426        0.01335907245261
C           20.41678199054423       -0.04086154442654        0.07254701608915
C           21.07512716266477       -1.20286198395379       -0.26868886443429
C           20.41106517774202       -2.42606449659047       -0.60235177389558
C           21.36999542846532       -3.37761500634197       -0.68688907298103
C           22.61997159417919       -2.73394152396074       -0.40539358421109
N           22.43264469968830       -1.39089943419049       -0.19868027763236
C           23.81077745760191       -3.41384670263601       -0.18774203005288
C           24.98937909329608       -2.75260233235220        0.11933611923083
C           26.23989152254166       -3.41054541273092        0.35262752728866
C           27.18614584594141       -2.44335176715906        0.41272488289483
N           25.16689511455381       -1.38758138218851        0.07691576316441
C           26.51369739064338       -1.19962130179005        0.20701388564592
C           27.18391865039030        0.01073151219942        0.00701867020025
C           26.49572104057567        1.20990782283362       -0.19907781012106
C           27.14342683084989        2.45505910776685       -0.46474626216191
C           26.18113534193558        3.40822801033987       -0.42933466221093
C           24.95028895840905        2.74144761272486       -0.12749588538119
C           23.76298598523760        3.39427977033896        0.16615595435895
C           23.75002719198401        4.87417767011869        0.22572612365644
C           22.91915473975244        5.60935431101960       -0.62101803693186
C           22.91279519914834        6.99495497498441       -0.56658820839303
C           23.72933357249284        7.66216512583756        0.33646203462511
C           24.55561870059730        6.93769761710983        1.18485980158900
C           24.56945705585041        5.55225558077094        1.12942933225373
C           22.58589893993637        2.69803323387282        0.40968476317032
C           21.34498899604906        3.31611307335896        0.77484115694886
C           20.40119500861391        2.34568691038303        0.74723533274662
C           21.06826445294536        1.13544159933984        0.37496559568223
N           22.41630889346090        1.34937986825279        0.23017000741832
N           25.14836279759751        1.38085307281961       -0.05354877006090
C           23.81832993070453       -4.89500580048799       -0.27440813570581
C           23.60444993707522       -5.53100009641303       -1.49714972495675
C           23.61608267804133       -6.91567655089041       -1.57652498118414
C           23.83587208089837       -7.67849638296316       -0.43769111557496
C           24.04589745655657       -7.05148682601767        0.78290923323450
C           24.03964431671316       -5.66704890348036        0.86596741611683
H           19.33358167318930       -0.05225208785896        0.10207791940467
H           19.34526023532549       -2.52639831346077       -0.73287082171506
H           21.25333787995188       -4.42856121446614       -0.89625890997482
H           26.36865053399345       -4.47729081196567        0.43644440331053
H           28.24898821123845       -2.54711399303828        0.56068604743244
H           28.19990460635450        2.56868556891393       -0.64712314022978
H           26.28424645256984        4.46912083964984       -0.58911703336394
H           22.29023161349295        5.09025211165816       -1.33570723517313
H           22.26789919079904        7.55649153333166       -1.23342244293228
H           23.72186921750681        8.74541084879939        0.37891632568028
H           25.19262318924223        7.45398713627713        1.89445755413278
H           25.20605977182789        4.98733300685347        1.80127737903681
H           21.22560241040117        4.35977070078183        1.01680340658979
H           19.34466286261191        2.42365924176010        0.94896205536467
H           23.44368112942191       -4.93564599655797       -2.38900528143592
H           23.45397339572740       -7.40099829929389       -2.53258535046864
H           23.84346235868905       -8.76070725639755       -0.50132152348325
H           24.21498248526542       -7.64309686421697        1.67580840998212
H           24.19265844831762       -5.17805536076462        1.82156416378974
Co          60.84512056537572        0.04297250749107        0.02694949138226
C           64.21807884220499        0.06191711340290        0.10513390052415
C           63.56374274171569        1.23903012728030       -0.18866582933591
C           64.23183786653308        2.47395414886687       -0.46620499126169
C           63.27475247441390        3.42961747892928       -0.51867004392241
C           62.02192054021858        2.77692348865292       -0.27259423201676
N           62.20605233781995        1.42624849612785       -0.11995574479232
C           60.83120530581642        3.44989637456405       -0.03380819885905
C           59.65066487944235        2.77933689384187        0.24447935517574
C           58.40150326542265        3.42939634747779        0.50527660802740
C           57.45394632422404        2.46185861601776        0.52958025814076
N           59.47087443533658        1.41736365597607        0.14796801982954
C           58.12389730482262        1.22630461764358        0.27246006680208
C           57.45125313040412        0.02664093849481        0.02214462454786
C           58.13705297354328       -1.16257967972789       -0.24188912425838
C           57.48694889896525       -2.39217648451255       -0.56740006336239
C           58.44780852004503       -3.34736456276318       -0.58076134862943
C           59.67989653846289       -2.69830961097346       -0.24707105048691
C           60.86524029670255       -3.36683893692332        0.01724117287622
C           60.87597265905967       -4.84793632507011        0.00774382148333
C           61.70846224791686       -5.54405760975457       -0.86982819078561
C           61.71513176396701       -6.93070348715920       -0.87773380152336
C           60.89740247323376       -7.63800142429967       -0.00683199293662
C           60.06918513588326       -6.95260659753390        0.87160812383842
C           60.05486545953322       -5.56607406669081        0.87834041808035
C           62.04254605792283       -2.68544533228855        0.29885919408982
C           63.28029575981218       -3.32277024099568        0.64083089204663
C           64.22567467763312       -2.35382629999585        0.66619785949559
C           63.56280080197062       -1.12588800203660        0.34841107616458
N           62.21532055235001       -1.33011826488253        0.18534820556000
N           59.48419620215317       -1.34255447806923       -0.10645441835031
C           60.82875902147367        4.93331388982055       -0.06413954490377
C           61.05209474882606        5.61314244719296       -1.26141515689179
C           61.05077866679619        6.99980546712294       -1.28905349086456
C           60.83192652013839        7.72105031308107       -0.12325154938015
C           60.61166019372728        7.05032934072390        1.07202570282679
C           60.60754918603728        5.66368548741584        1.10332367445453
H           65.30107621581755        0.06997407037594        0.14207080676439
H           65.29869577844269        2.57794399412568       -0.58468547177997
H           63.39445181199853        4.48813358591168       -0.68337789569502
H           58.27460735264404        4.49220586445478        0.63140791465050
H           56.39153763315318        2.56122636491796        0.68356333232345
H           56.43014476902746       -2.49495623388739       -0.75431894780927
H           58.34299648843276       -4.39888438651441       -0.79288409635652
H           62.33872456267702       -4.99315654825757       -1.55907938678465
H           62.36141289801358       -7.46156663187223       -1.56793791711685
H           60.90564599869060       -8.72205582201338       -0.01261190320583
H           59.43133408355897       -7.50040967709313        1.55638086694071
H           59.41705104385999       -5.03203372168856        1.57387750012057
H           63.39658569803466       -4.37712430124224        0.83271762867628
H           65.28082896783015       -2.44335047008239        0.87029459382910
H           61.21293533255655        5.05025363823919       -2.17410022241575
H           61.22095483266655        7.51928630030902       -2.22555934272096
H           60.83357003410687        8.80491388197680       -0.14614606394495
H           60.44346544387295        7.60941547825355        1.98580730320825
H           60.44749957638779        5.14061290116186        2.03951721587980
C           28.58531836757277        0.02026291048141        0.00203140028472
C           29.81099591089726        0.02919211384683       -0.00338333719385
C           31.15174715820534        0.03552801174712       -0.00726885345006
C           32.38388637507379        0.04119566069815       -0.00549705438002
C           33.71965928951787        0.04399729240122       -0.00478776895536
C           34.95189952318190        0.04458018684248       -0.00377605774005
C           36.29224521058770        0.03832560649632       -0.00515534649937
C           37.51831444253012        0.03961384110261        0.00038447399775
C           47.11693888530388        0.00910378779348        0.01734866412419
C           48.34299680165671        0.00430822633108        0.01660904671768
C           49.68330525654270        0.00194119625092        0.01560361690667
C           50.91554488659587       -0.00192357540706        0.02079426089410
C           52.25131242892284        0.00021147057169        0.01929847367517
C           53.48343705374028        0.00325093873901        0.02096328530505
C           54.82418796401686        0.00912092406142        0.02180159825043
C           56.04983342356186        0.01796162604841        0.02147471623799
Co          42.31756758050404        0.02530055215551        0.00727171780123
C           38.91835528420290        0.03623582075925        0.01157901770359
C           39.59475754436794       -1.15995268021923        0.27402389442209
C           38.93460960017578       -2.38959264446468        0.57701064129488
C           39.88850119234370       -3.35260570151269        0.57364466314880
C           41.12512316420774       -2.70586191231308        0.25547725001246
N           40.94075750363140       -1.34740053782748        0.13894639993819
C           42.30668259612423       -3.37768422116375       -0.02360523800222
C           43.49172691993563       -2.70539849691978       -0.28782436605502
C           44.72054749123643       -3.34878215683492       -0.64032735927751
C           45.67946676372146       -2.39059449392639       -0.62954866431639
N           43.68608070039149       -1.35343820968712       -0.12703421191763
C           45.03050562660749       -1.16776766927500       -0.27910126721758
C           45.71685847052092        0.01404875668779        0.01998831097892
C           45.03961045767309        1.19838000516060        0.32971823794523
C           45.69878304614869        2.41424681482616        0.68576603222270
C           44.74486862731091        3.37665107718485        0.71953611872322
C           43.50919560613639        2.74381565706443        0.37101230907324
C           42.32837781908797        3.42681291797433        0.11665331724132
C           42.33316315972592        4.90755123585658        0.15669354155195
C           41.52257459471900        5.59206893609507        1.06315516595139
C           41.53404525229068        6.97809525373762        1.10421932214142
C           42.34557846778598        7.69562905273136        0.23599241746575
C           43.15014574568591        7.02149028262657       -0.67261071471240
C           43.14898999270413        5.63537725801545       -0.71059233287338
C           41.14407729593434        2.76608007094396       -0.17853002310753
C           39.91624085692688        3.42330877145216       -0.50822673880301
C           38.95747573564869        2.46537666227499       -0.53998998168385
C           39.60543591128853        1.22926683080370       -0.23737542803811
N           40.94944612881469        1.40859878276730       -0.07425469635956
N           43.69393156201465        1.39131841960413        0.19905424528547
C           42.30299937428909       -4.85879783626350       -0.04677541581699
C           41.49325710985886       -5.54941946045510       -0.94941572799064
C           41.49613852511195       -6.93586573073400       -0.97320072010015
C           42.29854852213893       -7.64757928604172       -0.09173956742956
C           43.10327962595338       -6.96719741240861        0.81204502648513
C           43.11072085023523       -5.58068219367157        0.83285854135051
H           37.87644211392598       -2.48806446317627        0.75824606273105
H           39.77540278606502       -4.40763941260978        0.76273223639830
H           44.82517044035680       -4.39812920933839       -0.86295354243902
H           46.73440619505372       -2.48880280526620       -0.82882333518959
H           46.75646989590123        2.50504371522395        0.87373126002630
H           44.85757304167670        4.42291182717891        0.95251436740271
H           40.89615731406357        5.03214740224950        1.74859074438588
H           40.90601232527307        7.50024279012048        1.81748384448570
H           42.35107272810004        8.77924365321622        0.26744517796886
H           43.78311994075916        7.57767588341036       -1.35510654585115
H           43.76995827114778        5.10980617481434       -1.42746891146833
H           39.81213515587471        4.48096081861988       -0.68771329568019
H           37.90311166313097        2.57159903682026       -0.73830268569353
H           40.87444095133031       -4.99410934570629       -1.64544385051598
H           40.86934266679432       -7.46281120939758       -1.68403882362396
H           42.29751255814743       -8.73151294871860       -0.10987601382667
H           43.72937030147133       -7.51886066665762        1.50452274028004
H           43.73189985566373       -5.05003192426468        1.54581771119098
