176
 energy: -309.198320034187 gnorm: 0.000861456168 xtb: 6.5.1 (b24c23e)
C            7.53701881969445       -0.40399977160619       -0.17592969334839
C            8.36120422568653       -1.51982271360916       -0.19813747728608
C            7.94682282351758       -2.88205745992364       -0.30476196103686
C            9.06223245761371       -3.66682198642342       -0.29551091935214
C           10.20114292060506       -2.81406842734633       -0.18281673284639
N            9.72560570312144       -1.53104810145465       -0.12526023817486
C           11.53357028266612       -3.19321474615710       -0.14837081445662
C           12.63097930328016       -2.33679801175363       -0.05338048137049
C           14.01724336114556       -2.71514294622052       -0.06570006726031
C           14.66328294614357       -1.53896008726545        0.03083807230860
N           12.53578034024301       -0.98413592461285        0.05139878429507
C           13.78299951364297       -0.40995832418865        0.11152862507803
C           14.05344918100036        0.90486717596128        0.23191670817647
C           13.29271044183538        2.03913616711338        0.29935101316316
C           13.70074731941944        3.39633742472498        0.45182476166870
C           12.58238682209740        4.18306625408052        0.44943229014707
C           11.44862088509016        3.33378433013346        0.29794167341927
N           11.91698154332458        2.06103785400384        0.21025471933901
C           10.09853111156895        3.67198389978527        0.24567087598244
C            9.04845236242670        2.77354418551349        0.11632620091936
C            7.64801267105366        3.16356258835134        0.06439792782247
C            6.93891182705055        2.02364506131937       -0.05397213730209
C            7.90618909945179        0.93500465229378       -0.07278607424797
N            9.16130452750349        1.42246188737056        0.02866075761466
H            6.47331541602654       -0.60855510847453       -0.24678442637704
H            6.91920740202029       -3.20101198361978       -0.37917627376704
H            9.11108890181135       -4.74224375573940       -0.36086767572520
H           10.30913857357980       -0.70612877768519       -0.04367923645005
H           11.73717395795813       -4.25637719372853       -0.21443645388269
H           14.41950963364106       -3.71075462864559       -0.13943119235022
H           16.07867297920913       -1.36823987237823        0.04556660056251
H           14.72713376265041        3.71225172794444        0.54848274012394
H           12.53382033188849        5.25629496224191        0.54471675510545
H           11.32376120123594        1.24558612477132        0.10406753468559
H            9.85547886562381        4.72649702991939        0.31752087911166
H            7.29192394269122        4.18075855845657        0.11399747489640
H            5.86970366180421        1.89605812779030       -0.12265881535616
C           80.92495127369263        0.38629998663198       -0.16313102134176
C           80.08730772205186        1.47438824751972       -0.36097732172946
C           80.48678598347287        2.81612018445679       -0.64176931992557
C           79.36142619686829        3.57613549282041       -0.76832207876329
C           78.23096876155178        2.72781233072005       -0.56966458122909
N           78.72127078513022        1.47241442036321       -0.32669751110068
C           76.89357876958660        3.08799638799710       -0.61503161689748
C           75.80404211314791        2.23788895241558       -0.42327577104017
C           74.41428192807136        2.59680773956012       -0.48744307862380
C           73.77911206803128        1.43664865572408       -0.24157632359601
N           75.91156249683962        0.91050531529553       -0.14668304668226
C           74.66984546080862        0.33532498753060       -0.01688746863594
C           74.41581474578528       -0.95817933622184        0.26145496119384
C           75.18799836420082       -2.06493301981314        0.48199699727473
C           74.79271152413560       -3.40103756452573        0.78206750906583
C           75.92072398688026       -4.16298692696405        0.91157171491764
C           77.04781116378521       -3.31877792886566        0.69613365564623
N           76.56616416217837       -2.07360018556343        0.44176796467769
C           78.40303171282270       -3.63865524748552        0.72645423303978
C           79.44540635746799       -2.74742036361685        0.51277771137253
C           80.85149184765930       -3.11811150840534        0.55217689944045
C           81.54964115028841       -1.99254747756954        0.30327728462003
C           80.56992214675971       -0.93206037316113        0.11206542083685
N           79.31849853395870       -1.42174815689721        0.24378923279469
H           81.98754194784576        0.59701084539091       -0.23248185483882
H           81.51185830141603        3.13915693710573       -0.73203014606798
H           79.30046453727658        4.63181491493032       -0.98053906418865
H           78.14681831682095        0.65646477939106       -0.14808082780232
H           76.67928250151337        4.13019382290571       -0.82493387193953
H           74.00223839859396        3.57070161899552       -0.68818369482382
H           72.34536200574377        1.27108638876477       -0.20279771513777
H           73.76782624057591       -3.72075172463488        0.88205350117636
H           75.97999106675579       -5.21611578125946        1.13663638227022
H           77.15173341616817       -1.26740856906601        0.25381460156760
H           78.65679117020261       -4.67180236167485        0.93730936613386
H           81.21853106761179       -4.11382796995502        0.74660129330057
H           82.61875262834526       -1.85788101887991        0.24798550130024
C           17.21925235987358       -1.23580404125453        0.03747904159516
C           18.42102973766228       -1.07575318764071       -0.00165050361321
C           19.76586888247585       -0.90930236253108       -0.03044226889400
C           20.98351386484018       -0.76170238405617       -0.05196947552203
C           22.31581399213136       -0.61343128562431       -0.07453660983652
C           23.54029120510862       -0.48685271956970       -0.08781403476708
C           24.87298265638278       -0.37095839797286       -0.10024022177257
C           26.10018349630855       -0.27751380929304       -0.10209091003463
C           27.44048861444041       -0.20140617097938       -0.10052602333427
C           28.66400637123193       -0.14815421324963       -0.09113308429551
C           38.45377204150792       -0.00707799307545        0.02983055770451
C           39.67939179366660       -0.00871685549082        0.03748147852219
C           41.02019312887774       -0.01185153186824        0.04006787680243
C           42.25246386663051       -0.02517504768622        0.04176482208847
C           43.58708148350264       -0.03693382093850        0.03901238509792
C           44.82096184119703       -0.05152963855304        0.03509861057575
C           46.15557272108408       -0.05972194359984        0.03089977624064
C           47.38787675092752       -0.06359365666063        0.02567654011839
C           48.72857802905012       -0.05208736299808        0.01722391991152
C           49.95403998307525       -0.03711379233109        0.00743523677911
C           59.74214054410481        0.26436508602209       -0.05090043077835
C           60.96547209394787        0.32354312057684       -0.06359223642493
C           62.30581271094450        0.40040252483420       -0.07399758275670
C           63.53381776652003        0.48344786864594       -0.08406460251599
C           64.86790405347210        0.58313216994383       -0.09858489794472
C           66.09467558657089        0.68421144788438       -0.11404807393603
C           67.43019351831258        0.80213171478583       -0.12895551589467
C           68.65164601787360        0.91552969066516       -0.14674104925764
C           70.00092563576024        1.04380404356197       -0.16618580028471
C           71.20842140195396        1.15874123221162       -0.18094980862839
C           30.06687232945941       -0.11580937448419       -0.07635143072603
C           30.68626721941565        1.14828099755027       -0.10023199934493
C           30.05220361676297        2.41835204928250       -0.14168773072514
C           31.03045040966830        3.37513768704554       -0.15031335560050
C           32.28943776996353        2.71461668953342       -0.11442853375032
N           32.02970532511546        1.37187221375830       -0.08548210042700
C           33.54556719944084        3.31140311113179       -0.10942781989223
C           34.78490215861248        2.69056863199446       -0.07597099914609
C           36.04021055786351        3.42106239955068       -0.07656186608910
C           37.02061847958950        2.49481185311405       -0.04192614775377
N           35.02194773347993        1.35090936743389       -0.04022726504895
C           36.36010394943364        1.20264067978413       -0.01931623233596
C           37.05165260438261       -0.02620834843095        0.01919114873559
C           36.43055166599336       -1.29045903793862        0.04565477746808
C           37.06479407394342       -2.56031494127170        0.08834987673841
C           36.08672373502981       -3.51723557064689        0.10241360499892
C           34.82796363379741       -2.85679351744618        0.06787730269434
N           35.08737574762637       -1.51393952800305        0.03482034067045
C           33.57212275145658       -3.45377959765518        0.06611680419839
C           32.33325871587316       -2.83254212894721        0.03013663823860
C           31.07802839250650       -3.56290079916399        0.03065648925691
C           30.09801885343563       -2.63669220095052       -0.00961929063764
C           30.75874657956405       -1.34440138205096       -0.03433334394165
N           32.09693101986001       -1.49299852261756       -0.01012495852242
H           28.98469300804422        2.56841794794784       -0.16199146120093
H           30.90199553551816        4.44539575773681       -0.17885588594083
H           32.73305738836594        0.64107135432704       -0.05604479690164
H           33.54550657431342        4.39665104911054       -0.13573372491579
H           36.12571063586898        4.49609909197759       -0.10098003547778
H           38.08912562551826        2.64045254038648       -0.03129746426772
H           38.13223888217951       -2.71082952743900        0.10617971686516
H           36.21528511435903       -4.58738859064375        0.13355558313310
H           34.38384313569617       -0.78329221146278        0.00561065654754
H           33.57207132340859       -4.53890069135887        0.09593643112597
H           30.99231434430969       -4.63781728809366        0.05853799373571
H           29.02972209287278       -2.78314552557150       -0.02225009682183
C           51.35569507385824        0.00462192875705       -0.00022739976515
C           51.95546314642485        1.27946192519522       -0.00006439583057
C           51.29982275323314        2.53910813525174        0.00772133482294
C           52.26164839969358        3.51244369503728        0.00460759275937
C           53.53152716644333        2.87272730769892       -0.00517900222521
N           53.29477617603126        1.52525445835206       -0.00768867608590
C           54.77710586524729        3.49084715756967       -0.01087817792059
C           56.02676228762947        2.89051018865127       -0.02021409311567
C           57.26934235964062        3.64227120998741       -0.02527168715384
C           58.26540199984620        2.73246616602841       -0.03413363774264
N           56.28634448809056        1.55474083205669       -0.02611852341395
C           57.62709934567525        1.42877196817842       -0.03453483886490
C           58.33974679043520        0.21159638486008       -0.04308276349016
C           57.74137591043752       -1.06297665801702       -0.04380949072796
C           58.39679405091956       -2.32284954317182       -0.05234596396344
C           57.43474241895132       -3.29593014785273       -0.05005813464052
C           56.16465334000755       -2.65611653945919       -0.03993783998009
N           56.40174827942774       -1.30883641282080       -0.03647432250425
C           54.91880005626548       -3.27410428723731       -0.03460292887088
C           53.66878046887609       -2.67426282375770       -0.02457465385168
C           52.42612556406173       -3.42607711998241       -0.01957402463755
C           51.42984270269688       -2.51630016383355       -0.00978753308006
C           52.06808794666004       -1.21279873012641       -0.00892638888413
N           53.40867993883674       -1.33844182659157       -0.01783612845412
H           50.22991410767902        2.67200304887015        0.01478388356819
H           52.11491858996396        4.58070638504459        0.00866620401364
H           54.01053117582513        0.80601302465567       -0.01433762342680
H           54.75841906514871        4.57622061798500       -0.00747792983399
H           57.33636587825470        4.71887517227434       -0.02223619546269
H           59.33117275985732        2.89678168533388       -0.03998396814237
H           59.46677683433986       -2.45545948091851       -0.05937882682413
H           57.58128470985576       -4.36423569865317       -0.05487522004518
H           55.68611838838968       -0.58948079793553       -0.02955783719471
H           54.93766412667171       -4.35950213073867       -0.03882660818209
H           52.35914150548331       -4.50269837705964       -0.02326284672540
H           50.36390702068170       -2.67995856048923       -0.00366393585883
