242
 energy: -442.495651971101 gnorm: 0.000909186964 xtb: 6.5.1 (b24c23e)
Cu          50.62957050335871        0.04441039313052        0.01351726662807
C           47.22470155781593        0.06244241749757        0.11017410029989
C           47.86129471484072        1.27734776982703        0.31342011809654
C           47.18751897755788        2.52811959651376        0.51479165096766
C           48.14735988439740        3.47275458132217        0.67213371301065
C           49.41723526848095        2.80426215139375        0.58141647567990
N           49.21251168937930        1.47370609809890        0.35547963781128
C           50.66318135632532        3.42704508783424        0.68805654364331
C           50.67819591973422        4.88254112031313        0.97277439987565
C           50.12709724857590        5.37878735787462        2.15639742807875
C           50.14044692564524        6.73561101016980        2.42553971699371
C           50.70354121164331        7.62669285622116        1.50717289964666
C           50.71566324076817        9.02392206954417        1.77909750247654
N           50.72511340918651       10.15327878209857        1.99912604643611
C           51.25442774045418        7.13542860617414        0.31988168260518
C           51.24273466626454        5.77675879593444        0.06024835904917
C           51.89561016959227        2.78528303651483        0.54918863241627
C           53.17373741416500        3.41340014494229        0.72965026354420
C           54.11797301183172        2.46018441082530        0.52567914343634
N           52.08122403693882        1.46156138513795        0.25000272392318
C           53.42454753573534        1.24370011703413        0.22590550481572
C           54.05815800131188        0.02149541085740       -0.05905694960794
C           53.39673957587108       -1.18985789068402       -0.32650452457895
C           54.06029604547833       -2.41217381039118       -0.66694966630118
C           53.09534735959485       -3.35061101793006       -0.84065668094207
C           51.83474123679112       -2.70853815301611       -0.59682683561078
N           52.05074577232887       -1.38981922681788       -0.29574724968484
C           50.58918825776926       -3.33519398547322       -0.67633885782373
C           50.57081747980932       -4.78869585377590       -0.96990890756892
C           49.94050825163264       -5.27157719911203       -2.11913322699074
C           49.91986759172945       -6.62686715536368       -2.39534956911336
C           50.52865169057216       -7.53004033202977       -1.51891394158935
C           50.50542561469812       -8.92585196306529       -1.79725544862519
N           50.48579474166568      -10.05436702823042       -2.02190431587545
C           51.15940170549395       -7.05228133992954       -0.36638166640643
C           51.18049184477687       -5.69518870467770       -0.09939475556179
C           49.35797669185558       -2.69963896618345       -0.49644547289061
C           48.07812125825593       -3.35502438630473       -0.51361269830720
C           47.13902975322069       -2.40163049980057       -0.29566068243069
C           47.83618357514356       -1.15828451481976       -0.13157536023040
N           49.18052004206965       -1.36804914230664       -0.25425264875999
H           46.14012176947082        0.06766523196019        0.14260899515120
H           46.11641146538201        2.65454541031897        0.52165392027608
H           48.01433629276905        4.53171433278330        0.82447824492368
H           49.70027758177750        4.68970557536157        2.87642262606681
H           49.71618640601862        7.11251716743402        3.34878145225312
H           51.68879272238937        7.82361647521816       -0.39578229098284
H           51.66033067437158        5.40054536453443       -0.86684181690466
H           53.32536631105643        4.44730665032796        0.99429869210756
H           55.19022930152932        2.56108684389542        0.57757408192458
H           55.12789710403028       -2.52599900609009       -0.76648812522526
H           53.22178298896811       -4.38309910304142       -1.12339111153960
H           49.47781615148374       -4.57333832814286       -2.80748946755854
H           49.43314728618066       -6.99323371978463       -3.29159981142123
H           51.62949087397754       -7.74977930968461        0.31695743079693
H           51.65936629416698       -5.32979694681400        0.80201920419306
H           47.92528799983759       -4.41208558637703       -0.66041790328070
H           46.06823319096362       -2.51746684464798       -0.23839117537535
Cu          91.04625195944509        0.00725901403011        0.04229924680735
C           94.45204846101214       -0.01630177229295        0.10456136057742
C           93.81459202359150       -1.21642160124407        0.37984313645976
C           94.48759099299295       -2.45596128137686        0.64375199882656
C           93.52723120373390       -3.38955156223643        0.85437700705741
C           92.25775395633995       -2.72500827335898        0.73300752543277
N           92.46332645446334       -1.40798483441287        0.43904871137311
C           91.01153944507922       -3.34165566156503        0.86798594069302
C           90.99631429336499       -4.78186067760569        1.22228662639094
C           91.54474049318139       -5.21951435822153        2.43006645819229
C           91.53067136442937       -6.56146461757046        2.76547577240477
C           90.96931495854001       -7.49651816243789        1.89079351920322
C           90.95479503900120       -8.87855199201320        2.23158288244589
N           90.94404710647720       -9.99567130688669        2.50710946736483
C           90.42165575723506       -7.06411654556401        0.67934898258333
C           90.43435779789917       -5.71985234865589        0.35320193175149
C           89.77932751920621       -2.70707573363127        0.69711993129047
C           88.50072640708545       -3.32790396400742        0.89940670818724
C           87.55685480443418       -2.38366607469822        0.65667294514400
N           89.59425511801381       -1.39641702028692        0.34542820437075
C           88.25070865026861       -1.17900371801102        0.31273206806363
C           87.61777554132868        0.03573323607580       -0.00104761066000
C           88.27824174297687        1.23820912085287       -0.30506068353485
C           87.61314563832620        2.45064561750508       -0.67738185180058
C           88.57836655098782        3.37618645997776       -0.90806130483694
C           89.84105624291854        2.73713976256287       -0.66616654629846
N           89.62553669037638        1.43327122902588       -0.30637638437593
C           91.08781955520949        3.35056149733547       -0.80584740371867
C           91.10848463671950        4.78496637304663       -1.18233734227721
C           91.70907282989246        5.19248746438055       -2.37584953320686
C           91.73038689953781        6.52830190665919       -2.73434304594029
C           91.15255202255962        7.48756744669336       -1.89743784664691
C           91.17510557347984        8.86345527675865       -2.26176952739813
N           91.19337748826790        9.97555309725486       -2.55741703919313
C           90.55304529148748        7.08551395229934       -0.70024999713227
C           90.53077772179162        5.74717651547732       -0.35092810860092
C           92.31931923372012        2.71755399350379       -0.61979558189869
C           93.60124292596902        3.36477525362348       -0.69569689506862
C           94.54022789812377        2.42056232405506       -0.44072539574469
C           93.84123576156259        1.19133147033915       -0.19700498575810
N           92.49584793307167        1.40011717474695       -0.30947948102719
H           95.53690002447135       -0.02324052994827        0.12545296285152
H           95.55855338991967       -2.58346375539886        0.65271158638019
H           93.65960073286388       -4.43927122636876        1.06139172829025
H           91.97004455173655       -4.49594690592606        3.11638043969489
H           91.95279367583218       -6.89257305461437        3.70708196357594
H           89.98883681466917       -7.78658575407818       -0.00266466248478
H           90.01944552852092       -5.38979463730808       -0.59248043947860
H           88.34854873493097       -4.35069254387733        1.20384494300403
H           86.48453168145120       -2.48229267272722        0.71137498886216
H           86.54424470576156        2.56606362733144       -0.75939280984293
H           88.45059945671440        4.39759657202184       -1.22808768485074
H           92.14769489881316        4.45009088424642       -3.03308556520997
H           92.19336083092178        6.83582755522412       -3.66465455224074
H           90.10767962367201        7.82693470970976       -0.04728437299831
H           90.07600986413148        5.44091878281815        0.58432034738493
H           93.75521070186598        4.41144855014026       -0.90328672753330
H           95.61227193033895        2.53431593524919       -0.40772270231538
C           56.68632520063691        0.00496883208160       -0.07889531487637
C           55.46444804224169        0.01095281652955       -0.07528704342218
C           58.03622315241952        0.00006083444794       -0.07781336867130
C           59.25822124184781        0.00057903723654       -0.07309930751405
C           70.16165726904860        0.01897479080424        0.00885109660180
C           68.93950152880065        0.01474021049930        0.00183639629430
C           71.51111634122253        0.02444362831387        0.01344361190997
C           72.73325538656820        0.03054077962428        0.01474543481987
C           83.63748490602718        0.06079528392361       -0.02478800283137
C           82.41592745971957        0.06353585862561       -0.02750274728181
C           84.98854658002622        0.05481243468363       -0.01939778001252
C           86.20992984598332        0.04776581142147       -0.01341556693765
Cu          64.09926734140480        0.00737463098241       -0.03684255380742
C           60.66401551825066        0.00246317676973       -0.06444452147817
C           61.31734596829688       -1.16937298618402       -0.48603420171719
C           60.64484267639347       -2.37183950871673       -0.87603523150089
C           61.60468340042018       -3.26374344619957       -1.23070654150548
C           62.87028930487254       -2.60675363851091       -1.06691504442627
N           62.66259781685107       -1.33549122127908       -0.60264024053153
C           64.11376208739354       -3.18759489829046       -1.32678489679786
C           64.11872283375990       -4.55994459633415       -1.88929907396467
C           63.52415219992767       -4.81852745460696       -3.12659643088894
C           63.52853830264001       -6.09571278178860       -3.65782224536068
C           64.12630698729140       -7.14528498491912       -2.95383035643831
C           64.12995178378900       -8.46176278614863       -3.49541425007549
N           64.13251871789869       -9.52514842010231       -3.93494585505705
C           64.72026367116797       -6.89248499227778       -1.71373654699062
C           64.71718031123916       -5.61153358619125       -1.19144597704937
C           65.35196855731390       -2.58125073217501       -1.10306549719447
C           66.62348831637055       -3.15851450346521       -1.43491824349232
C           67.57503572145168       -2.26392691811357       -1.06490879654752
N           65.54801656613742       -1.34285063926363       -0.55242102630865
C           66.89149878788278       -1.13235538516849       -0.51481975052455
C           67.53405415976671        0.01160176881968       -0.00800324806433
C           66.88003537057575        1.15406234420717        0.48747957930231
C           67.55142468860285        2.28856434151308        1.04642813070867
C           66.59162668739883        3.18205532129421        1.39730501672865
C           65.32736719518989        2.60085338475346        1.04531433989544
N           65.53561698083662        1.36124494850723        0.50195162973581
C           64.08423882660014        3.20544032061993        1.24515786035561
C           64.07705701284402        4.58209080447120        1.79703855459382
C           63.46154402890907        4.85090316325329        3.02177593139244
C           63.45321012003982        6.13339380025186        3.54013635465244
C           64.05910007565414        7.17791949127779        2.83562208725686
C           64.04902172999387        8.49994893100855        3.36349240724827
N           64.03945259428377        9.56830353530050        3.79091782700838
C           64.67488417445907        6.91463659395431        1.60843925586361
C           64.68439843619943        5.62855312853002        1.09910974732168
C           62.84665142791734        2.62031051152325        0.96754626539057
C           61.57674708989069        3.27404398691200        1.10932176634497
C           60.62518521266022        2.37808105430008        0.74281185148982
C           61.30726697061706        1.17671356769436        0.36623258093577
N           62.64997397612777        1.34696716201462        0.50396165066406
H           59.57545498322223       -2.50958845634875       -0.86862578005859
H           61.47107667095761       -4.28157932368026       -1.55953460414479
H           63.06989974554251       -4.00482425371306       -3.68066237370865
H           63.07026757385105       -6.28711821488612       -4.62103887678049
H           65.18138344268770       -7.70445387756348       -1.16373582779998
H           65.16816562610710       -5.42192495203838       -0.22393137612941
H           66.76662934609520       -4.11811353146935       -1.90466584612739
H           68.64557058959693       -2.35039402907106       -1.16039323209450
H           68.61996472692228        2.37777745082840        1.15994714554494
H           66.72436638414425        4.14330562479231        1.86673815540461
H           63.00065757567029        4.04137160923382        3.57644191203363
H           62.97840683006078        6.33295445703394        4.49362530181782
H           65.14275033959019        7.72249897194962        1.05812109101447
H           65.15225714914482        5.43061572538241        0.14133622497390
H           61.43492076035533        4.29247157735099        1.43280716211319
H           59.55566922152557        2.51278644661575        0.71828655428609
Cu          77.57381035652003        0.04993159275443       -0.01082384142181
C           74.13879972075277        0.03577103016539        0.01026895573025
C           74.78911863395119       -1.13054566945984       -0.43144548613800
C           74.11355190701411       -2.33012081432397       -0.82516640884404
C           75.07064433178296       -3.22022254811778       -1.19145878160728
C           76.33761444255228       -2.56510395615132       -1.03077875054246
N           76.13335861857927       -1.29589459885403       -0.55916016768694
C           77.57920859589564       -3.14801341866807       -1.29409075110765
C           77.58085942782746       -4.52072395326350       -1.85602472291160
C           76.98720891490059       -4.77833942387675       -3.09393782265167
C           76.99168497792371       -6.05524692574725       -3.62590734230863
C           77.58868704574685       -7.10540805441029       -2.92211621216659
C           77.59489069511199       -8.42104784872012       -3.46571904668113
N           77.60008279316006       -9.48385686361161       -3.90674046392440
C           78.18031963953560       -6.85383984335799       -1.68065947269973
C           78.17698388485132       -5.57321936467223       -1.15755672542625
C           78.81920839786883       -2.54369355333208       -1.07444154916628
C           80.08880977189116       -3.12585137677168       -1.40583264117340
C           81.04294778178250       -2.22984777950106       -1.04681516937315
N           79.01893804175543       -1.30166562162903       -0.53403912931382
C           80.36303451370340       -1.09171270512155       -0.50528562396035
C           81.00858583991462        0.06160310742848       -0.02627285609006
C           80.35941542061832        1.21192587929898        0.45469915016554
C           81.03627489076929        2.35665572140328        0.98605053590574
C           80.07927116270703        3.24795922874324        1.34905899171714
C           78.81072539852822        2.65559666429146        1.03179263811572
N           79.01414256724694        1.41289882278894        0.49445257307721
C           77.56866267926205        3.25174940859308        1.26236384900754
C           77.56711626580775        4.62889576528066        1.81329114634616
C           76.98596918240625        4.89417894155805        3.05548827594174
C           76.98784438805683        6.17611348949136        3.57528344271046
C           77.56948840243116        7.22364516100715        2.85491567846058
C           77.57237463209344        8.54430244098897        3.38623980410180
N           77.57519491383798        9.61184442269795        3.81573944544422
C           78.14887874682660        6.96431797629244        1.60930643624638
C           78.14831905023162        5.67878155986870        1.09842918095598
C           76.32857268761153        2.65731656096391        1.01819509631847
C           75.05815122316604        3.30215213977642        1.19307744269485
C           74.10402854767595        2.40245431788535        0.84282687615620
C           74.78469396780812        1.20743786533026        0.44401429494028
N           76.12902917325756        1.38448348039331        0.55427695962434
H           73.04421640737819       -2.46777834194521       -0.81163640318631
H           74.93444505161681       -4.23592702572271       -1.52576620017180
H           76.53407192875635       -3.96411894910151       -3.64816862094470
H           76.53455882127682       -6.24592188178693       -4.58982514828957
H           78.64028211301559       -7.66633298325051       -1.13045485735134
H           78.62664435678312       -5.38439341520864       -0.18927599994812
H           80.22885605485219       -4.08963342550979       -1.86784200107970
H           82.11294338322574       -2.31835147106228       -1.14610047587335
H           82.10651108982186        2.45280214056277        1.07512580551482
H           80.21673488188871        4.21467853844749        1.80570819038054
H           76.54474983171929        4.08232896925145        3.62262300851080
H           76.54025153808038        6.37298435003158        4.54235024432086
H           78.59724119677226        7.77451003521681        1.04628769525891
H           78.58844258914368        5.48372614508375        0.12701506984468
H           74.91750471998093        4.31792399052771        1.52537253911983
H           73.03341333506690        2.53065158284502        0.84306340129036
