496
 energy: -868.335153511165 gnorm: 0.000861780572 xtb: 6.5.1 (b24c23e)
C          119.17762737780937        0.13776966174451       -0.20328027319696
C          119.77224046229237       -1.10934899045385       -0.34339892486641
C          119.10721415587750       -2.35637415910871       -0.51137697405565
C          120.05943458267754       -3.33070050975875       -0.61367649654046
C          121.33703887150889       -2.71116523745750       -0.49894378909700
N          121.11299199767274       -1.37291200053051       -0.34596653612843
C          122.59453407921917       -3.32228274811268       -0.56023390353342
C          122.61022837468374       -4.79471633346677       -0.72890109871661
C          123.20498392057331       -5.36965081291670       -1.85635909983962
C          123.21852175076572       -6.74179448208707       -2.01507784202475
C          122.64193903622669       -7.57191188928449       -1.04795788377825
C          122.67419128201210       -9.03366133810243       -1.23805782716360
O          123.17533449601551       -9.57318689157340       -2.19105838269519
C          122.04822891862437       -6.99899547009796        0.07921210150734
C          122.03012753631945       -5.62424222566267        0.23480907478464
C          123.81958510953736       -2.65530248304976       -0.47567843145464
C          125.10680595783474       -3.32701753283016       -0.48602590191662
C          126.04170012831150       -2.36128773280051       -0.37615267006012
N          123.99455796948715       -1.31184116257980       -0.34425652321174
C          125.32639448927210       -1.10304934234122       -0.28772684505989
C          125.98114310312150        0.14011797897868       -0.18048821216940
C          125.35928656855245        1.40006448404512       -0.09510853921930
C          126.01501384922365        2.65667842985676       -0.01290674240867
C          125.05797008211933        3.63026761244914        0.06089148682404
C          123.78532708284401        2.99535547603769        0.04256711718543
N          124.01921679091286        1.64984782910340       -0.06167442779428
C          122.52895241290194        3.60992644267248        0.09393627638001
C          122.51297903829843        5.08628327021877        0.21259731891933
C          123.10257612834306        5.71862905024528        1.31180199247506
C          123.08536875981434        7.09599015042217        1.41670607740974
C          122.48247156429161        7.87441939734766        0.42303495372836
C          122.48343253698211        9.34269298040471        0.55556652962102
O          122.98938643518949        9.93056123150814        1.47704355829891
C          121.89277996256747        7.24422803704012       -0.67548330978216
C          121.90636281946608        5.86474374126967       -0.77763045517660
C          121.30274790214627        2.93781777984556        0.04580588631905
C          120.00771544726933        3.58936048419147        0.17233066148865
C          119.08039938564643        2.61446164768009        0.09227582829873
C          119.80753246122376        1.36822108084109       -0.07412383027092
N          121.14338032704286        1.60048103518097       -0.08864952560365
H          118.09238125890762        0.14203647292270       -0.19856721079739
H          118.03665874060405       -2.47730710448932       -0.55512691106072
H          119.89736373509349       -4.38564056117802       -0.76432227445053
H          121.84477468868211       -0.67639382224122       -0.25354446169041
H          123.64179288256351       -4.72822271677479       -2.61335714139420
H          123.67345787008145       -7.19511823734838       -2.88922859208219
H          122.19297671674548       -9.61063991540171       -0.41977859582644
H          121.60214599793565       -7.63572434674424        0.83630901532645
H          121.58163053248940       -5.18389382714004        1.11830570498347
H          125.25417379269007       -4.39249098024059       -0.55494331005086
H          127.11395682364827       -2.46700437753653       -0.35645211041528
H          127.08419848386747        2.79179307685692       -0.01252930855060
H          125.21785069240475        4.69459519753904        0.11605981729999
H          123.29067002602541        0.94517707369603       -0.11055665157082
H          123.55676692095980        5.11843832399061        2.09217530337927
H          123.53546026547220        7.59340170217040        2.26914673292937
H          121.97491010546521        9.87604687993643       -0.27566722413448
H          121.42554186257151        7.84037267991053       -1.45257872755602
H          121.46062411666072        5.37925572465142       -1.63845624907974
H          119.85460935439123        4.64643850002461        0.31853162815189
H          118.00628583867606        2.69776631406925        0.14535208965579
C          202.35896440820076        0.09984562059448        0.17892584239910
C          201.75267786013302        1.34335985673823        0.05721806225620
C          202.40693001009575        2.60261411110403       -0.05168164569424
C          201.44619411583696        3.57011830565021       -0.13842208856465
C          200.17353210432691        2.93347651691842       -0.07379124096392
N          200.40945411275030        1.59258848038102        0.03129879542523
C          198.91018068520066        3.53392498252933       -0.12394481396012
C          198.87782279617508        5.01270994478243       -0.20683516708260
C          198.27152538241924        5.64661090613277       -1.29604928659930
C          198.24255574596299        7.02549921632053       -1.37370977963115
C          198.81459386961225        7.80364379507469       -0.36170748771083
C          198.76689546356025        9.27367588028477       -0.46509585207520
O          198.25699406320584        9.86363308903831       -1.38276766594080
C          199.41889784924126        7.17200693667918        0.72782959610568
C          199.45244894170492        5.79087673647520        0.80222217880294
C          197.69301944632650        2.84747971209565       -0.09655452061803
C          196.39630846811454        3.50035242776368       -0.06730129396773
C          195.47435934291008        2.51627712601040       -0.04102362840897
N          197.53673154118502        1.49597237812876       -0.06661833525330
C          196.20758061200641        1.26505237924591       -0.04836291902936
C          195.57035186042111        0.00889771767401       -0.03605495903855
C          196.20471280131093       -1.24573670348998        0.02174873827566
C          195.56474130612170       -2.51266332015669       -0.01897366119808
C          196.53043666524306       -3.47740802124374        0.06012319001224
C          197.79178434033616       -2.82744844092699        0.15980851183861
N          197.54395899527771       -1.48117842633063        0.12241655225743
C          199.05331409927675       -3.42789997959554        0.24653590084552
C          199.08459333564241       -4.90705041823585        0.30090953168889
C          198.43171452885696       -5.59472958994991        1.32917855542231
C          198.45983325271388       -6.97506145364121        1.37397545442017
C          199.13765653751813       -7.70182738643102        0.38939159128532
C          199.14575532107236       -9.17446574493700        0.45498639954806
O          198.58578364266222       -9.80894205528535        1.31213449602488
C          199.79089750288372       -7.01666686069946       -0.63802042618467
C          199.76570267912371       -5.63426275197502       -0.68003901534190
C          200.26951097347165       -2.73642251144574        0.27985004977832
C          201.56908311795158       -3.37196279937377        0.43681533729985
C          202.48327262049224       -2.38161247014612        0.41695407613331
C          201.74316922678511       -1.14194879551240        0.25860480511988
N          200.41238400043969       -1.39331648125873        0.19210987651031
H          203.44364318060460        0.10924731839390        0.21443905164179
H          203.47672406981101        2.73655485255810       -0.06721499475767
H          201.59977172142951        4.63143074774336       -0.24736113615662
H          199.68325855180092        0.88578157484863        0.07931227014097
H          197.83849700109468        5.04613821034185       -2.08799426672111
H          197.77880704198424        7.52445573338006       -2.21784765049507
H          199.24617323880537        9.80599685059911        0.38409366954831
H          199.86101194279672        7.76791482982616        1.51970389917807
H          199.90836876926028        5.30457554520492        1.65738758249187
H          196.23469127610576        4.56585716493701       -0.04980860916131
H          194.40075747147120        2.60456159598314       -0.00326946553489
H          194.50084903407515       -2.65968644940693       -0.11069358586005
H          196.38470479070821       -4.54497042341380        0.03742216668556
H          198.26426474577295       -0.76703520399450        0.15149794961132
H          197.91856001926683       -5.03492516243231        2.10304869384955
H          197.96013024816986       -7.51487281874192        2.17121219996667
H          199.71745620811620       -9.66416866249496       -0.36198411129169
H          200.31642042735993       -7.57247697587509       -1.40777712016437
H          200.25973933935995       -5.10647255749939       -1.48797796995216
H          201.73354645109183       -4.43021230117046        0.56050759052853
H          203.55598988903887       -2.45064823710543        0.50639050478051
C          127.39107332740092        0.13756643182987       -0.16134884917892
C          128.60823954909529        0.13303851851293       -0.14061953883810
C          138.30833262472373        0.02705696983789       -0.02597128728959
C          139.52557856737835        0.01411902151247        0.01065743455265
C          149.23343147892896       -0.15284767599313        0.19449968680972
C          150.45160476623593       -0.17533330251601        0.20147671008129
C          160.18019253254704       -0.26710865213259        0.20462281238792
C          161.39891329794281       -0.27079703330461        0.19106021200117
C          171.12183456276091       -0.06026055764400        0.15559572509439
C          172.33967090095317       -0.03505629280701        0.13958989143493
C          182.03941775775994        0.11089513005425       -0.17455002960273
C          183.25618444641472        0.09223902258067       -0.21395936082298
C          192.94559282942424       -0.02217140577469       -0.14150194084631
C          194.16125970005695       -0.00820699724720       -0.08898468978346
C          130.01710717021984        0.12176956796711       -0.12252192161606
C          130.66356097562254        1.29664768836045       -0.55118054163446
C          130.04299649966342        2.46961534195287       -1.05196475812892
C          131.02428960489951        3.38413031248475       -1.32174845906405
C          132.27432111233691        2.79641913326116       -0.98649067325044
N          132.00723174460410        1.52973358231251       -0.54244897823093
C          133.54143487052437        3.38573035189063       -1.08671364022638
C          133.57712769204204        4.80111189519608       -1.52378986538432
C          134.26820640923862        5.16352849584959       -2.68444929171832
C          134.30112716970595        6.48221396567169       -3.09426450390721
C          133.64885866543744        7.47117960139836       -2.35037488567458
C          133.70446897722766        8.87249481115066       -2.80596607330827
O          134.28761696427182        9.23031963200635       -3.79704935479875
C          132.95982686266004        7.11124181982518       -1.18977537278536
C          132.92206438992494        5.78932668141179       -0.78319345922662
C          134.75703276851104        2.75596993676114       -0.81158913705256
C          136.04068656577286        3.43452871404831       -0.83321240241726
C          136.97006683295183        2.50167053642544       -0.54022462043077
N          134.92659191584789        1.44557354470306       -0.48500618894424
C          136.25444278930749        1.25774565058611       -0.33858205485535
C          136.90075913822432        0.03804630547652       -0.05465311911621
C          136.25432752539615       -1.18551661988990        0.20774262569913
C          136.87584872525301       -2.44261976278817        0.42065313047698
C          135.89463317512866       -3.36074726693459        0.67712362741094
C          134.64348398414225       -2.68747171619612        0.63468216209120
N          134.91024461386621       -1.38026799757182        0.32781242699377
C          133.37630405900410       -3.23879833120368        0.86301790757932
C          133.33890276614068       -4.66523986268392        1.26179453029795
C          132.64307670497871       -5.59482682367555        0.48316607575361
C          132.60514712578541       -6.92827309986242        0.84937788026898
C          133.25882278671810       -7.35906199064910        2.00627595880043
C          133.23095975416445       -8.77405059796195        2.42105768907990
O          133.78040482466264       -9.19208569816035        3.40766491449713
C          133.95293332812165       -6.42923923935345        2.78742692758056
C          133.99517123022110       -5.09863747491685        2.41819430929024
C          132.16050149819810       -2.56083097898917        0.74800473085872
C          130.87616772183597       -3.14254229886419        1.09536901139530
C          129.94623960517623       -2.20406918038545        0.82318083450978
C          130.66240991525063       -1.05169798472518        0.31434819884593
N          131.99157338630897       -1.28557133385288        0.30456572313758
H          128.98177044182526        2.58848198970176       -1.19718630162681
H          130.89538587287427        4.37345945484447       -1.72922770558565
H          132.71186414752592        0.85878833353420       -0.25515902989593
H          134.76444778022042        4.39743243771816       -3.26936764676640
H          134.83002944654180        6.77017585797569       -3.99645932624482
H          133.15769052099273        9.58626081960312       -2.15372374085100
H          132.45479372432709        7.87258806372863       -0.60421522458986
H          132.39900504847770        5.51616543631782        0.12646104629929
H          136.18769882143928        4.48465244643335       -1.02672128326481
H          138.03730576254731        2.62330476353203       -0.45002575813674
H          137.93739894388858       -2.61957683616226        0.36885266347466
H          136.02470830796338       -4.41357290445371        0.86673489161633
H          134.20500917017216       -0.66165004455352        0.20403146963658
H          132.14531758555592       -5.26534739241725       -0.42185805698980
H          132.06709096880203       -7.64333208477146        0.23563920536138
H          132.65410658619544       -9.43704482279528        1.74167767981969
H          134.45349748677728       -6.77184449653830        3.68670578002387
H          134.52108687416543       -4.37848300506907        3.03489621213417
H          130.72857759722973       -4.12632194158348        1.51027156703199
H          128.87889113519617       -2.25797204315389        0.96215445177636
C          140.93263319559225        0.00580027619070        0.05809794036655
C          141.59407885862416        1.05084170303503       -0.61561372754139
C          140.98946684296280        2.07796493680928       -1.38431988338781
C          141.98253499516036        2.89379100851795       -1.85371482208758
C          143.22402331117658        2.38944703343109       -1.37997489531486
N          142.93991037838330        1.26733847463774       -0.64927701641232
C          144.49885779099895        2.92089539835966       -1.61488923332446
C          144.55303808851176        4.19303233532472       -2.37285868884744
C          145.25218216549752        4.26368523791728       -3.58224469610999
C          145.30515598539284        5.44869013537215       -4.28996861120767
C          144.66398355510114        6.59289277969314       -3.80366665733770
C          144.74144350678094        7.84730390732740       -4.57536304657691
O          145.34304737657649        7.95706935372266       -5.61273836538156
C          143.96584972248317        6.52437672899574       -2.59574929543531
C          143.90909838462858        5.33582167786541       -1.88967276263951
C          145.70754492462294        2.35607559601245       -1.20223376031924
C          146.99798013522857        2.99720636279023       -1.38028956573482
C          147.91838473690376        2.14627654747526       -0.88181116935541
N          145.86465866961174        1.15430281687962       -0.58195471188674
C          147.19088717279192        0.99083220702040       -0.39727645924469
C          147.82589158785737       -0.12971401011171        0.17688801841205
C          147.16370784018534       -1.23038240029289        0.75533961222307
C          147.77079290667780       -2.35685986867824        1.36654237319789
C          146.77767209760680       -3.15519903398878        1.86362326683267
C          145.53133734553859       -2.54621000844030        1.55448204940603
N          145.81503962287644       -1.38912902393748        0.87959202116051
C          144.25756738138887       -2.99971634331578        1.91878740120331
C          144.20924645930634       -4.25842882264438        2.70353796160751
C          144.65318928113450       -5.45926627114539        2.14406392998561
C          144.60580621146781       -6.63278322284417        2.87602093835279
C          144.11939386026665       -6.62608742642215        4.18519745889065
C          144.05970925517914       -7.86215250285997        4.98826202159272
O          143.65337579640149       -7.90340656940707        6.12072226454081
C          143.67882580953182       -5.42315157783708        4.74652677448473
C          143.72041506620849       -4.25298432277212        4.01318141222583
C          143.04737711256649       -2.37762864614807        1.60989629376833
C          141.74933695125310       -2.91553680963706        1.97633540309465
C          140.82903155785129       -2.07916049747258        1.45447255753674
C          141.56377159610420       -1.03834564678807        0.76363456421876
N          142.89255090657102       -1.23842746888641        0.88032601672364
H          139.93084128023543        2.16945005389674       -1.56332437782150
H          141.86649698166653        3.75934851470376       -2.48516519426618
H          143.63423329153562        0.67840412929382       -0.20181336935300
H          145.73942199559232        3.37532703473809       -3.96792387438916
H          145.84122892840350        5.50984432427382       -5.23098587717953
H          144.19596112494449        8.69940740992611       -4.11703729263652
H          143.46932501620691        7.40829324390577       -2.20880273998454
H          143.37977760405386        5.29113328007672       -0.94444012573446
H          147.15562570488078        3.97399185571167       -1.80778744537025
H          148.98630806761801        2.27623300581266       -0.81864518768632
H          148.83269066020046       -2.52816506776141        1.42099893635207
H          146.89782702712861       -4.07957274284409        2.40433825541530
H          145.11874003408195       -0.73766609434503        0.53299955701310
H          145.01965583134324       -5.46963969859633        1.12370654914789
H          144.94638456691800       -7.56227616466360        2.43150912688282
H          144.42565211526519       -8.76780571826138        4.45931834444099
H          143.30623394587423       -5.42707985430969        5.76523559347208
H          143.38795266808339       -3.31999159212141        4.45393750610334
H          141.58613227845993       -3.81727567778930        2.54364385520343
H          139.75493424557953       -2.13933532373793        1.51942329163472
C          151.85923852949941       -0.18367113241751        0.20834643226119
C          152.50199211162101        0.72523748877173       -0.65551446097329
C          151.88087322922019        1.59189284102279       -1.59012138526877
C          152.86152578492730        2.31866951270759       -2.20843266940573
C          154.11169743579151        1.92024468629330       -1.66248294672858
N          153.84537881284808        0.94211011860759       -0.74260215972283
C          155.37698163614269        2.42635474770401       -1.98748615997143
C          155.40931198256777        3.55386455996468       -2.94792784139586
C          156.11960291066720        3.43558561636294       -4.14716044623414
C          156.15236221204316        4.48415406530538       -5.04555205049408
C          155.47977443668000        5.67812726176802       -4.76476019601780
C          155.53791068943525        6.78510694208550       -5.73764847435651
O          156.14705903165287        6.73062227447384       -6.77495473264478
C          154.77078687022149        5.79851312590074       -3.56727326903798
C          154.73424081929033        4.74602551636487       -2.66989104097166
C          156.59637159475167        1.96136328244878       -1.49006169736829
C          157.87059469283366        2.60323614492847       -1.75831551235403
C          158.81032049205311        1.85654692376730       -1.14249460033532
N          156.78146075342428        0.86666835946353       -0.70224114584697
C          158.11145791959606        0.76215009748980       -0.50092093037267
C          158.77243515940165       -0.26489200661736        0.20481410367675
C          158.12835762826680       -1.29063695309549        0.92470688388364
C          158.75064290762384       -2.33079369330377        1.66030122651948
C          157.76970230136143       -3.06412756916656        2.26918228587939
C          156.51551975382833       -2.49932487632509        1.91127443028162
N          156.78252346471791       -1.43565853550849        1.09171805735443
C          155.25279512110924       -2.89873151772177        2.36622285244168
C          155.23008929064548       -4.05284119566456        3.29932160733063
C          155.64990347001722       -5.31455271061063        2.87027126078276
C          155.62632449706894       -6.39292441062908        3.73715147528239
C          155.18719532373839       -6.22824788615591        5.05273810854214
C          155.15302181855529       -7.36060889678660        5.99741198676656
O          154.77802192667485       -7.26792426807124        7.13771785548879
C          154.77062795191014       -4.96432734676396        5.48317881148366
C          154.78989821348435       -3.88899602268273        4.61585553207009
C          154.03277291029838       -2.31434402873168        2.02417865295398
C          152.75012748570606       -2.78197703841404        2.51850348006663
C          151.81124364790224       -2.01904195509764        1.92261535767938
C          152.51742038894398       -1.09902893062923        1.05469298996796
N          153.84980586656584       -1.28960146768670        1.14622053305232
H          150.82055984438261        1.63859279510678       -1.77474861931524
H          152.73138112803900        3.05462937507893       -2.98480375254638
H          154.54836762048615        0.44574828666051       -0.20547132634821
H          156.63153959517447        2.50699513693244       -4.37293501794864
H          156.69687689406967        4.39813126193363       -5.97974699686197
H          154.96856166181976        7.68942699084930       -5.43478852276923
H          154.24980674470663        6.72270728354247       -3.33927656993039
H          154.19676207455834        4.84941354961697       -1.73390122915633
H          158.00469369046675        3.51340537573987       -2.31988224520182
H          159.87372657454472        2.02332373162810       -1.09608340956578
H          159.81396515651844       -2.49108908492315        1.71807740271950
H          157.90294244735637       -3.91412127570058        2.91807737999424
H          156.07871305910857       -0.83312604290885        0.67814425415176
H          155.97931439528369       -5.44777737829180        1.84590951400735
H          155.94810506399122       -7.37080963189586        3.39399383022111
H          155.50515509385588       -8.32291647078466        5.56858756321736
H          154.43489356944008       -4.84526805310908        6.50772376331825
H          154.47742428933998       -2.90792201076495        4.95507721625556
H          152.60683014560533       -3.59057215777795        3.21646628981278
H          150.74133086280310       -2.05800098771149        2.04304650158248
C          162.80655222055205       -0.24671618603629        0.18261098518136
C          163.42011307693230        0.62828356545135       -0.73669867613182
C          162.77076127187661        1.41848628440776       -1.71847442172353
C          163.72541897106302        2.14631823735432       -2.37489878813750
C          164.98787065408197        1.82398054642408       -1.80777439283757
N          164.75535388702363        0.88670596968858       -0.83731476122659
C          166.23335269786000        2.35940602802426       -2.16175672760177
C          166.22030725803748        3.44786945146348       -3.16675519772945
C          166.92716948210983        3.31143466734181       -4.36593164174853
C          166.92061988980871        4.32923650074515       -5.29974791262824
C          166.21072112902613        5.50955516723231       -5.05563755869259
C          166.22975821526862        6.58546570731106       -6.06427391265415
O          166.83848702427127        6.51791759809750       -7.10099072986066
C          165.50275028194352        5.64693287188389       -3.85939511396795
C          165.50583469401275        4.62528708046645       -2.92646084025117
C          167.46991847539681        1.95938031862802       -1.65085339243845
C          168.72470457545140        2.61812432263035       -1.96678520784621
C          169.68909125728433        1.93189870771492       -1.31938775463510
N          167.68997583310500        0.91674543601145       -0.80399091223398
C          169.02347316184830        0.85989856373640       -0.60779558088015
C          169.71460516065639       -0.09858111497699        0.16111628265379
C          169.10701124635776       -1.09552249300455        0.94874615072633
C          169.76747024331610       -2.06615958964230        1.74416734404887
C          168.81361803772833       -2.79724662279738        2.39726091768444
C          167.53959510144733       -2.30183894221996        2.00757550418533
N          167.76751512784543       -1.27909289078863        1.12671626244400
C          166.29109089142804       -2.72208076051904        2.48243262857022
C          166.30812258339770       -3.82215218725637        3.47856264438811
C          166.78207850603616       -5.08769329251430        3.12339185313540
C          166.79512085744466       -6.11610761534102        4.04916814479637
C          166.33873667636385       -5.89651106901571        5.35080231398765
C          166.34002572280923       -6.97557951436389        6.35635362718512
O          165.95018628545742       -6.83559046899744        7.48684200506772
C          165.86890124126754       -4.62832235731106        5.70759561069084
C          165.85198652738063       -3.60308275868542        4.78160575717286
C          165.05161977154287       -2.20326365118724        2.10584071636013
C          163.78542957789088       -2.69130029473404        2.62210741525542
C          162.82137695443834       -1.99382261990923        1.98753895727593
C          163.49570921757163       -1.09411883512436        1.07435988295758
N          164.83388765170051       -1.23329263840577        1.17492593647187
H          161.71055513917690        1.41410425390019       -1.90803397442452
H          163.57076661677769        2.83338059058878       -3.19059220280758
H          165.47503933759361        0.44815271502373       -0.27271408049530
H          167.46807860748595        2.39288960815677       -4.56336161219722
H          167.46310156036242        4.22928382130361       -6.23373564426110
H          165.63236035225717        7.48026983077870       -5.78827140498727
H          164.95203634214079        6.56046770468151       -3.66012643954163
H          164.96913127824024        4.74253704295334       -1.99164185187572
H          168.83049574283399        3.49724908901492       -2.58135768476132
H          170.74885121967660        2.12646254984505       -1.29498264685260
H          170.83625766528206       -2.18379790968705        1.80849784445261
H          168.97775055857571       -3.60164422355027        3.09532667147829
H          167.04196721206796       -0.72911263528606        0.67899557149365
H          167.12452266258782       -5.26449803252036        2.10995148900172
H          167.15865756638453       -7.09772417537688        3.76311181198651
H          166.73633130114172       -7.94458229360920        5.98486882783268
H          165.52058874506403       -4.46608571125324        6.72195952821882
H          165.49837051052128       -2.61792381827047        5.06377173632204
H          163.66936540041044       -3.46857604024528        3.35960504943834
H          161.75330186698929       -2.06732238041642        2.10696336386727
C          173.74682913173649        0.00701504725637        0.10863758637210
C          174.33079616888850        0.71071780414119       -0.96295633688280
C          173.64594429989828        1.32786558437655       -2.04091102007023
C          174.57881333492728        1.89667083597917       -2.86386908377749
C          175.86304862641782        1.64497975849907       -2.30932653536282
N          175.66308097428529        0.91770259375250       -1.16670670984568
C          177.10054751986965        2.02774697055751       -2.84190484229837
C          177.05738899912950        2.85316118606315       -4.07276850923690
C          177.63419431789470        2.38529475832875       -5.25758959889789
C          177.59254340827212        3.15383677831185       -6.40468639713937
C          176.97742840720829        4.41004825906852       -6.39323443962787
C          176.95189517279641        5.21217664360073       -7.63092348860989
O          177.43639653670610        4.84877894771996       -8.67162502920875
C          176.40118797352073        4.87885831704835       -5.21043503654315
C          176.43824027453559        4.10616710370422       -4.06308377948840
C          178.35243547470668        1.68984382553708       -2.32433168715923
C          179.60941023263842        2.14946664054450       -2.88778817712015
C          180.58659950839228        1.60573873397867       -2.13370043702356
N          178.58657049692869        0.90531798031210       -1.23693557997085
C          179.92699463181648        0.82884847817612       -1.10356973933188
C          180.63174501561321        0.10228495715564       -0.12412256352395
C          180.04960657239275       -0.63708236944697        0.92347011806229
C          180.73889039624601       -1.31438864059025        1.96212381847747
C          179.80644802266036       -1.86798355188590        2.79597569855600
C          178.51866450117564       -1.54822013482642        2.28637866908873
N          178.71619168682400       -0.80099681522708        1.15658332089350
C          177.28120960031669       -1.88057471520086        2.85187503737859
C          177.32510150335540       -2.71091560632630        4.08029404586021
C          177.86983047074395       -3.99737631049383        4.04176272757763
C          177.90779706111263       -4.77721698549651        5.18416318330854
C          177.40724737053060       -4.28223347915597        6.39051364409491
C          177.43662465798349       -5.09171219006802        7.62323607358954
O          177.01695259793848       -4.70750572732398        8.68437430057193
C          176.86676549315737       -2.99274177203486        6.43048697927884
C          176.82386744746350       -2.21672483854425        5.28825170063301
C          176.03024795627147       -1.50120368260705        2.36297805837021
C          174.77335982552836       -1.90493892378808        2.96736678937064
C          173.79609556784484       -1.37333064119463        2.20511023123104
C          174.45425822442428       -0.65871318411429        1.13009422620732
N          175.79455131787483       -0.74989965056783        1.25176552359242
H          172.57698533148323        1.32009932230804       -2.17448303994752
H          174.39569682037896        2.42907532165031       -3.78277119241643
H          176.40387601815610        0.57323943677297       -0.56521943205804
H          178.10034213992236        1.40664752366776       -5.27263751179756
H          178.03325921864686        2.79592317589678       -7.32895105806211
H          176.44176970225044        6.19354744931156       -7.52847382733573
H          175.92462603446663        5.85358978094748       -5.19166521521034
H          176.00169241136561        4.47889389809971       -3.14320667113738
H          179.70994983269361        2.80771536875382       -3.73526897850801
H          181.65395120444848        1.70875546543681       -2.24297670275559
H          181.81087726893173       -1.35504899125677        2.06390528885640
H          179.99322708930339       -2.43438363767339        3.69357928031604
H          177.97341011940759       -0.41519568075060        0.58318235919010
H          178.24761362186550       -4.38911534539330        3.10397273625407
H          178.32618248385350       -5.77762755886122        5.14332384952886
H          177.88225822491017       -6.10110601581208        7.49563466853172
H          176.48426171043283       -2.61528568861872        7.37273282285078
H          176.41525016451035       -1.21326779963932        5.32487334297999
H          174.67234684865673       -2.52088589965276        3.84599046185272
H          172.72920334007790       -1.44466908481579        2.33819672452219
C          184.66432253257213        0.06481513739742       -0.23987473317673
C          185.30830828114543        1.15014574215466       -0.86301349576420
C          184.68069082586607        2.25017337821109       -1.50253166030087
C          185.66008007583073        3.05657149257624       -2.01346909664398
C          186.91740788626925        2.48102419446421       -1.68345659481303
N          186.65380975115434        1.32974795122309       -0.99086762197570
C          188.18592705382122        2.96579603546470       -2.02384010567451
C          188.22278594298399        4.22682567827428       -2.80390610416678
C          188.76641551787384        4.23993492505262       -4.09198445417651
C          188.79755628180709        5.41114007247640       -4.82388082487425
C          188.29203546682902        6.59758590418337       -4.28233693129214
C          188.33907838879105        7.83466849411719       -5.08427755294417
O          188.78579670699855        7.88990736776807       -6.20095950975375
C          187.75284956283690        6.58655025568092       -2.99397061720756
C          187.71565496305442        5.41157307135961       -2.26384689730443
C          189.40371195123871        2.37020401576857       -1.68992818711797
C          190.69712090574092        2.95272518996026       -2.00146904940607
C          191.62448324444497        2.12248667193107       -1.48250773020290
N          189.56714119265237        1.21304362190047       -0.99286439250496
C          190.89790625329042        1.03736721303441       -0.85312537555561
C          191.53748306507188       -0.03365179968242       -0.20030730102855
C          190.89366366978780       -1.12756861077984        0.40764245481574
C          191.51984873063608       -2.19915470606672        1.09485856144050
C          190.54036216018704       -3.04410465292387        1.54031005354943
C          189.28592940600197       -2.51253539042168        1.13485562627610
N          189.54959230787264       -1.35140876994922        0.46016309434535
C          188.01653192421031       -3.04276529962018        1.40015051442624
C          187.98246737896912       -4.34572299148670        2.10521674948448
C          188.58395512436866       -5.47260002967268        1.53724097338566
C          188.54705342252765       -6.69182110645319        2.19019926235944
C          187.91170336106399       -6.80768683257359        3.42879036660027
C          187.85533639270611       -8.09563391459018        4.14471345473025
O          187.31119000212337       -8.24532494958902        5.20854196873210
C          187.31453200993198       -5.67923068726634        4.00044459331655
C          187.34792449901636       -4.46322044840655        3.34596844151771
C          186.79902389484937       -2.44728228260287        1.06442697582533
C          185.50611014690099       -3.06408753372152        1.30202818892975
C          184.57936344783823       -2.19119756897258        0.85647928462414
C          185.30603270958056       -1.04964670494588        0.33688663509253
N          186.63583521212854       -1.23677156217603        0.46306553988295
H          183.61511826926142        2.39666543175912       -1.56687822382749
H          185.52420035277419        3.96566377491167       -2.57598877708333
H          187.36258178208135        0.69901413600519       -0.63147514468569
H          189.14923468557390        3.31935041162738       -4.51770106108179
H          189.21179698801583        5.42875549795646       -5.82621470935723
H          187.92376885420316        8.72755792432108       -4.57039823166673
H          187.36308071152169        7.50356978738280       -2.56418625581762
H          187.30862014053011        5.40921799384998       -1.25890995411798
H          190.85241924080319        3.87866337346015       -2.53074834943574
H          192.69808346533384        2.21310310665358       -1.51300586951334
H          192.58362682589382       -2.29932232620478        1.23670643529471
H          190.67333797207741       -3.94661989455811        2.11408449671315
H          188.84198606491256       -0.73934503955532        0.06774774617455
H          189.06432126805049       -5.38999669267606        0.56869405081081
H          189.01034824360573       -7.56263598113729        1.73789054750130
H          188.35957646969359       -8.93321291770252        3.61742723001008
H          186.82782670145772       -5.77746728570537        4.96485030681145
H          186.89588364598029       -3.58761778091618        3.79792691320547
H          185.34937689999222       -4.03973461695988        1.73242961230605
H          183.50681504655520       -2.29852296267069        0.84860817682752
