120
 energy: -206.491193576034 gnorm: 0.000419878868 xtb: 6.5.1 (b24c23e)
C           13.51606140994814        0.13284520139079        0.03154963407229
C           14.13348808121253        1.37519490862009       -0.02637732644480
C           13.49408454817598        2.64643436311259       -0.04846063598748
C           14.46614422267383        3.60532391172677       -0.09294159628143
C           15.73098127028397        2.94989096398702       -0.10770205015290
N           15.47937136988627        1.60843055005992       -0.06386122352869
C           16.99862606149231        3.54118950427067       -0.11203224925459
C           17.03412074632874        5.02381234615271       -0.15813313799887
C           17.58724631178071        5.75573680447211        0.89485683132256
C           17.61956938251999        7.13804566799103        0.85124014552497
C           17.09985662508312        7.81697133992114       -0.25491114832471
C           17.13569330585466        9.23920885058573       -0.30493857917259
N           17.16186380935736       10.38906479979149       -0.34171480360732
C           16.54514032051208        7.08887316125186       -1.31150879859035
C           16.51138483431879        5.70690646986660       -1.25852350314967
C           18.21407089635855        2.85292625790732       -0.07798830736307
C           19.50920729802356        3.50780948062857       -0.09733819001786
C           20.43251439034386        2.52525213488687       -0.07234360458582
N           18.37449004815972        1.50100710848300       -0.05695751291867
C           19.70481114988977        1.27238741340842       -0.05758464321783
C           20.34646958097016        0.01667333208788       -0.05955244369250
C           19.69795869184679       -1.23339596038458       -0.04930260796521
C           20.32282008046992       -2.50774380034207       -0.05601793309624
C           19.34523764145092       -3.46170644268369       -0.00826205286516
C           18.08750779481980       -2.79830299456363        0.01182071067144
N           18.35199101939939       -1.45436198808708       -0.01537446362754
C           16.82259539423146       -3.39137849727947        0.08617579791270
C           16.78451265522292       -4.87329758818213        0.14071447717126
C           16.26557460510087       -5.52248255834211        1.26337907327766
C           16.23058952616165       -6.90389294789424        1.32528663806612
C           16.71079110080371       -7.66554939540372        0.25574790474773
C           16.67399892272439       -9.08740812735642        0.31493769494035
N           16.64432699329564      -10.23666597674277        0.36444298783477
C           17.22681836712264       -7.02052801611511       -0.87209403505936
C           17.26488723831769       -5.63851759664770       -0.92419630335950
C           15.60647725474160       -2.70209824062647        0.11148278333356
C           14.30269743499224       -3.34819912471407        0.13239172629106
C           13.38645747775051       -2.35986072820151        0.11245061866853
C           14.12902120273486       -1.11223745242407        0.07246474072906
N           15.46247301131632       -1.35676520932242        0.07113094044600
H           12.43108920529321        0.14612490779513        0.04626219959300
H           12.42626578198717        2.79428024034763       -0.02519705394387
H           14.32623963024499        4.67407689855928       -0.10405255815996
H           16.19513752782433        0.88969822925994       -0.05078075065091
H           17.98047726364117        5.23331271710610        1.75954863068078
H           18.04636824900169        7.69958881759314        1.67399086584965
H           16.14421754062166        7.61141184870086       -2.17213239401382
H           16.09187700609495        5.14525477733126       -2.08563882531003
H           19.67094106890578        4.57279596237296       -0.13391052871598
H           21.50549116744758        2.61753700258442       -0.06350810585161
H           21.38663434257318       -2.66931446046691       -0.09421228899792
H           19.48150999351055       -4.53042384403204        0.01721909349386
H           17.64129734841322       -0.73031462296061        0.00036045492198
H           15.90227087688536       -4.93485025928010        2.09886861680941
H           15.83285826557563       -7.40051922925857        2.20256808260162
H           17.59499888735943       -7.60773299479007       -1.70521330420567
H           17.65417277014049       -5.14228032048724       -1.80605248646299
H           14.13695001664847       -4.41341281279104        0.14554458174682
H           12.31045175117098       -2.43557942640566        0.11576298957794
C           31.21503399767940       -0.11944909746636        0.06391355610579
C           30.59808785732396       -1.32960105371357        0.35187717056617
C           31.23826660480023       -2.55684252521689        0.68270375827974
C           30.26678221689025       -3.49067229825657        0.90751317592419
C           29.00151342175557       -2.86555446767546        0.71275067565750
N           29.25234911045130       -1.56462833493100        0.38186265126653
C           27.73397437080665       -3.43453035346439        0.87492462489443
C           27.69784563841312       -4.87108243901498        1.24398135964365
C           27.14079383643470       -5.28029687705998        2.45759945674122
C           27.10641894790771       -6.61994755850237        2.80087268962600
C           27.62840399616173       -7.58060499034640        1.92951913177357
C           27.59127220837908       -8.96050878171450        2.27739533309835
N           27.56246353201612      -10.07585553085839        2.55914373034631
C           28.18751749968384       -7.17611977804102        0.71376326788104
C           28.22297142843377       -5.83420430773911        0.37942827754662
C           26.51867983413972       -2.76324283323036        0.71726662832648
C           25.22326146223223       -3.39676459107310        0.88207122452351
C           24.30038646907154       -2.44550215866884        0.63325863765892
N           26.35879138308175       -1.45886352406852        0.36103289153709
C           25.02854726352023       -1.23861014556092        0.29775284355211
C           24.38702047252083       -0.03321797559513       -0.05437220551886
C           25.03516407435358        1.17010889344082       -0.39387145013408
C           24.40962184704052        2.39136706005240       -0.75672981672929
C           25.38659953222238        3.32179755478600       -0.97543440397975
C           26.64467029450687        2.69156053173547       -0.76942207685336
N           26.38095334653710        1.39296990932942       -0.42152584980228
C           27.90937798031728        3.28299721500748       -0.86003696245419
C           27.94754971760227        4.72203678118441       -1.21757770960569
C           28.46940050074778        5.65596879325066       -0.31940981786250
C           28.50526338174013        7.00056941305337       -0.64204756714787
C           28.02271186650020        7.43730618880641       -1.87937549554831
C           28.06113625411497        8.81971999565198       -2.21698634456669
N           28.09306954875802        9.93671821208376       -2.49169819593912
C           27.50312129970775        6.50611341715156       -2.78343379415543
C           27.46459551578817        5.16360673928659       -2.45137162745273
C           29.12533326035542        2.62789029263821       -0.64273907756744
C           30.42939381998940        3.25448037381607       -0.79947573717075
C           31.34522228644039        2.29885209707254       -0.54505537492015
C           30.60219376709290        1.08870575910465       -0.24008946179308
N           29.26885105940435        1.32367576354554       -0.30991098223497
H           32.30002356279014       -0.12804992924405        0.08139918635213
H           32.30620614006670       -2.69207033612517        0.74483092020485
H           30.40747936935155       -4.52034000059459        1.19371575587381
H           28.53594429526651       -0.87091823883872        0.19580423251692
H           26.74604405681102       -4.53734439677214        3.14130293804000
H           26.67619324106030       -6.92959513518671        3.74609131914228
H           28.59040583468694       -7.91807667450009        0.03432249964716
H           28.64552215229529       -5.52578893237499       -0.57024981890911
H           25.06083209710472       -4.42974458347650        1.14329896726913
H           23.22740152325462       -2.53098984352854        0.66842405576479
H           23.34577775357866        2.53474266193528       -0.84019850077735
H           25.24947621951183        4.35507247220800       -1.24911552080908
H           27.09220721156160        0.70288829260101       -0.20356864071665
H           28.83438383677242        5.32201135374261        0.64526885085317
H           28.90562529041499        7.71991001085537        0.06273082284210
H           27.13274575155772        6.84050373786015       -3.74543890361634
H           27.07317700824801        4.44337118580412       -3.16095663906415
H           30.59579305119887        4.28190074737775       -1.08060324089926
H           32.42125409122972        2.37244978773553       -0.56152724093562
C           21.75773198080999       -0.00211501489002       -0.06813039243197
C           22.97572585860565       -0.01740388943929       -0.06685155750419
