466
 energy: -705.169129677013 gnorm: 0.000646659932 xtb: 6.5.1 (b24c23e)
C           79.78332836964351       -0.16740887771860       -0.04324166988548
C           80.41044637229123       -1.40605721022085       -0.08423687989561
C           79.78774309815300       -2.68489795959284       -0.14562130889991
C           80.77274714030133       -3.63195867998287       -0.16991836761948
C           82.02860132489376       -2.96162207535113       -0.12254539308766
N           81.75938956856777       -1.62327401769040       -0.07244235317820
C           83.29771826651064       -3.54473137646227       -0.12084176675736
C           83.34198885998083       -5.03520065826180       -0.18953667006133
C           83.38073153958415       -5.67211766772459       -1.43324190663896
C           83.38202810870000       -4.85426790186057       -2.69727967647158
C           83.42057955713774       -7.06038211702173       -1.48931752218220
C           83.42351955331847       -7.82277100053974       -0.32595412995291
C           83.44699082865775       -9.32571181691058       -0.39895924124454
C           83.38439723462649       -7.17835354770609        0.90632704267894
C           83.34407122159948       -5.79126904436552        0.98602484883260
C           83.30609357393163       -5.10122129700141        2.32357180901048
C           84.50860365140677       -2.85599935267552       -0.06811034733297
C           85.80301683720961       -3.51356273501963       -0.05901585982950
C           86.72883348586677       -2.53301111765041       -0.01305587838834
N           84.66891227031309       -1.50459299536351       -0.02594941692124
C           85.99787068914739       -1.28006624311270        0.00375918836565
C           86.63281787683788       -0.02168158283396        0.02658040976900
C           85.98126154946927        1.22523395880373        0.03961506722286
C           86.59857476135251        2.50432879537630        0.07325763911928
C           85.60983207790302        3.44883620376106        0.09809997576610
C           84.35770434185932        2.77335516769491        0.07828083301457
N           84.63421555892894        1.43216475244534        0.04123433105367
C           83.08938634350410        3.35619056307544        0.09710401187505
C           83.04128461861701        4.84687594620633        0.15025854237326
C           83.04025828212568        5.58899579991304       -1.03425311794603
C           83.09010904506032        4.88372720082639       -2.36345137759901
C           82.99320369844791        6.97674677119090       -0.97133296812351
C           82.94785575165703        7.63570300703414        0.25291160739151
C           82.87566706272946        9.13785905709589        0.30759127227612
C           82.94793287919849        6.88712866481187        1.42531713147699
C           82.99447703753067        5.49851960906646        1.38606425380942
C           82.99514226537717        4.69592833109783        2.65984500276524
C           81.87726567085706        2.66391046163214        0.07237509977872
C           80.57636867896443        3.31445953119326        0.08935371792905
C           79.65651643018938        2.32924961477946        0.04964639421833
C           80.39516056039587        1.07885777653477        0.00889486535102
N           81.72909578249754        1.31851768055838        0.02488465097066
H           78.69842068503377       -0.18422365648048       -0.05527939682828
H           78.72153652981382       -2.84497364672747       -0.16837543449163
H           80.65280869253117       -4.70251016943317       -0.21551258156525
H           82.46366006183410       -0.89433395839296       -0.03331365657440
H           82.47538832980617       -4.24912197892094       -2.75833992955318
H           83.43293800977006       -5.49614884621277       -3.57623959758792
H           84.23711611213578       -4.17589755392286       -2.70866418374902
H           83.45203079294164       -7.55425434061655       -2.45503714843346
H           82.42566205358837       -9.71376126501811       -0.39864944454587
H           83.93769416460719       -9.66301016419603       -1.31220580813907
H           83.96973414711215       -9.74805256378042        0.45961322599028
H           83.38744433218955       -7.76518147054500        1.81909767670191
H           82.40342380194625       -4.49351200484924        2.41137523973942
H           83.31912864933994       -5.82665175781251        3.13644731463586
H           84.16640054565777       -4.43813877956716        2.43201695619199
H           85.95335507115264       -4.58097615648604       -0.08458200426788
H           87.80339858116341       -2.62112373699965        0.00686354232615
H           87.66409661950966        2.66886525341858        0.08008396003721
H           85.72701498508653        4.52008125622953        0.12875890402441
H           83.93242526993829        0.69976277075545        0.02171507772516
H           83.03482614857353        5.59725402492186       -3.18501748720002
H           84.01788885589259        4.31573130948472       -2.45622778451381
H           82.25903035364639        4.18173610249201       -2.45177257417046
H           82.99262470435033        7.55252886305879       -1.89111216225000
H           83.33154053181006        9.51587810720830        1.22298114786517
H           81.83195571506643        9.46040521630256        0.28974902741807
H           83.38227623710257        9.58270777410253       -0.54924475289757
H           82.91212956234783        7.39250713497823        2.38491800945951
H           82.93968114724824        5.34809383402829        3.53091862912228
H           82.14326114959185        4.01370304592712        2.67826788424852
H           83.90453953141706        4.09591202249236        2.72942323354943
H           80.42097293648467        4.38103824398960        0.12535584143958
H           78.58057217066072        2.40829398292001        0.04686030678970
C          154.14662685138086        0.11300385100422       -0.07000534399971
C          153.52398486378135        1.34705619511287       -0.20689240701265
C          154.15175911260587        2.61736900877463       -0.34501108937052
C          153.17037948418110        3.56219943018004       -0.45457451024110
C          151.91176367218395        2.89876821126967       -0.38804549897277
N          152.17573307559127        1.56694012300758       -0.23722243442473
C          150.64473292814546        3.48156818390155       -0.46577376854994
C          150.60758780207013        4.96424053842635       -0.63480719189502
C          150.63131917169443        5.52178706135056       -1.91628746849613
C          150.68967313985155        4.62607514197325       -3.12501399933122
C          150.59841804516492        6.90385793477710       -2.06119737156709
C          150.54163147687260        7.73788481089054       -0.94946274288639
C          150.52664071866687        9.23329084154267       -1.11758466598480
C          150.51925145056384        7.17213658731661        0.32120734580040
C          150.55119035747748        5.79283798372977        0.48960134584091
C          150.52284150828925        5.18871724560659        1.86830140821342
C          149.43084599448667        2.79947120914600       -0.39899609654784
C          148.13854746489585        3.45418241632579       -0.49494226717947
C          147.20907816112532        2.48214827854448       -0.38426456998007
N          149.26552337970526        1.45775776703489       -0.23522717337718
C          147.93579490934528        1.23757803883778       -0.21956462315034
C          147.29671077525597       -0.00794798815767       -0.05220231231285
C          147.94473661009704       -1.24596061532700        0.11562299024252
C          147.32268997710437       -2.51226137190778        0.28147093401726
C          148.30784262941540       -3.45491681664696        0.38777545736237
C          149.56221657332168       -2.79071908110311        0.29035299307727
N          149.29079266818758       -1.45753011267739        0.13014262500287
C          150.82805803784117       -3.37697927501612        0.34187760804527
C          150.86849349466729       -4.85972807551260        0.50593013702052
C          150.85165468233259       -5.68580479191388       -0.62164644960314
C          150.79186975346983       -5.07862574205230       -1.99805635069752
C          150.88915000764439       -7.06560087038616       -0.45866283143263
C          150.94204644122411       -7.63435964504414        0.80972607947099
C          151.00282051059995       -9.12921734792050        0.97206583798667
C          150.95958702431113       -6.80278154407945        1.92464431848558
C          150.92300502259275       -5.42027405928648        1.78518803672875
C          150.93989649546396       -4.52713530763246        2.99704208685611
C          152.04273811027804       -2.69496207581648        0.25116563637588
C          153.34118367595869       -3.34751604085287        0.31314857689988
C          154.26458401835689       -2.37129578798627        0.20025541645248
C          153.53046639533451       -1.12461118445379        0.06757717646681
N          152.19571117678038       -1.35759466777768        0.10126995883021
H          155.23165236320830        0.12631393377661       -0.07203570810250
H          155.21869495230547        2.77368074745457       -0.35717880156887
H          153.29467739035471        4.62683053013173       -0.57139040882592
H          151.46846849726623        0.84398651954367       -0.15991890453657
H          151.60614140240341        4.03279779822069       -3.11296729395233
H          150.66496862814319        5.21055186937709       -4.04423548881682
H          149.84490894378763        3.93486990040907       -3.12586335141379
H          150.61526345544723        7.33616606546871       -3.05635977673854
H          151.54888228490302        9.61878207850456       -1.10609073943936
H          150.06935955300887        9.51328522442307       -2.06684880182395
H          149.97604327788946        9.70979261952671       -0.30608156976975
H          150.47441377961576        7.81507556239550        1.19421598691405
H          151.40903232135329        4.57233566061712        2.03096868823777
H          150.49157025334898        5.96453669303044        2.63269076596336
H          149.64590577561972        4.54885792838727        1.98307707222264
H          147.99199198824957        4.51392551920916       -0.62960624882206
H          146.13459852752385        2.57105445157880       -0.40688459038546
H          146.25667506295639       -2.67050997382881        0.31265806284561
H          148.18658603417228       -4.51769280583381        0.52194703253985
H          149.99529033626172       -0.73424489012112        0.03102181159478
H          150.83498658925399       -5.85025938819437       -2.76609354152511
H          149.86600120611550       -4.51357195099106       -2.12266208082389
H          151.62545501667424       -4.38968835185097       -2.14553987264811
H          150.87568188779065       -7.70654710192051       -1.33418051713308
H          150.55673967546656       -9.43603193065606        1.91837576319746
H          152.04350169820060       -9.46174850275355        0.96346357034565
H          150.48061973434127       -9.63005067457842        0.15645694527689
H          151.00103601030031       -7.23755528426365        2.91800303650909
H          151.00342984307977       -5.11432005755277        3.91262628932654
H          151.79391373244488       -3.84864288400868        2.95590807095883
H          150.03315338668250       -3.92018224983861        3.03304286716997
H          153.49258676796879       -4.40908662762909        0.42799266558816
H          155.34022800359494       -2.45434998320496        0.20233404512884
C           89.26135644139084        0.01061533424258        0.03194600325908
C           88.03943410552250        0.00124641525493        0.03156490451937
C           90.61169030045880        0.01194761117377        0.02789984418367
C           91.83369553105801        0.01026059229439        0.01938296884905
C          102.77914789903939       -0.01801114107501       -0.01520620024415
C          101.55621313973583       -0.02165617168295       -0.01016591136181
C          104.12704426097700       -0.02299153609509       -0.02029980868429
C          105.35003457457248       -0.02650885970354       -0.03325988708401
C          116.29252141498650       -0.00855633499667       -0.00861987552991
C          115.06949005489251       -0.01211121605593       -0.00901091168797
C          117.64023387433711       -0.00665420282622       -0.00819582416327
C          118.86326550236359       -0.00698331044183       -0.01273388675568
C          129.80563411701291       -0.04177629674931       -0.03910553755014
C          128.58265612112689       -0.04488590802062       -0.03807320204980
C          131.15350109325570       -0.04385920371713       -0.03835880841902
C          132.37649151856920       -0.04412891272172       -0.04311956968883
C          143.31940195459731       -0.07155090928406       -0.05916938263740
C          142.09721602391735       -0.08759898333632       -0.06403451182876
C          144.66895842946369       -0.05414929686060       -0.05388657709840
C          145.89090382397080       -0.03067727854696       -0.05272742628880
C           93.23953194249475       -0.00139024853170        0.01036249646368
C           93.86889958043727       -0.96230539097915        0.82417102031674
C           93.23221755912441       -1.92121524489691        1.65471463489275
C           94.20770992483133       -2.64893472913571        2.28045892154265
C           95.46847381159274       -2.15324796103379        1.84929789925660
N           95.21287881539511       -1.13676422705686        0.96841196116397
C           96.72808305782868       -2.60656232598933        2.25151596943269
C           96.73983927808730       -3.73146882524093        3.23314429301788
C           96.74076812612809       -5.05358136155811        2.77864909017652
C           96.72890857253606       -5.34047981911019        1.30078561112317
C           96.75289119851726       -6.09292100460495        3.70099467036774
C           96.76322152823434       -5.83544074860364        5.06839750821911
C           96.79691070381428       -6.97225066373008        6.05387324683411
C           96.76266423079430       -4.51650159598807        5.50901530623770
C           96.75063269160209       -3.46098693486003        4.60424185056834
C           96.74940671042359       -2.03600406579397        5.08998281781769
C           97.95592328659869       -2.10609263269461        1.82493099526052
C           99.23262532233210       -2.61887774596282        2.28849219233411
C          100.18466106713689       -1.89660230453686        1.66146193839506
N           98.15273363093948       -1.09337337540525        0.93525001478222
C           99.48687562662829       -0.94708174166241        0.81661276754077
C          100.15301245280517       -0.01840645932787       -0.00987971863312
C           99.52249841404381        0.91681315175167       -0.85371970627733
C          100.15895080006493        1.85424703386707       -1.70812972603656
C           99.18316558493898        2.56244174660361       -2.35567231193181
C           97.92266632951977        2.07764860733882       -1.91177835075142
N           98.17891295195778        1.08452204377850       -1.00436782163485
C           96.66315797222700        2.52898610327015       -2.31542871863608
C           96.65241594188829        3.61954335958360       -3.33496743612261
C           96.65191391987440        3.29803221614998       -4.69524679763868
C           96.66046574266566        1.85595140173216       -5.12760256417436
C           96.64272098578384        4.31886580293124       -5.63873356173970
C           96.63295200844327        5.65341170741450       -5.24753916757655
C           96.64266937224762        6.75165104192741       -6.27631539959726
C           96.63366079732107        5.96168146766343       -3.89079374050645
C           96.64282715107275        4.95742452357069       -2.93008638734219
C           96.63921918231155        5.29904421520457       -1.46387412173458
C           95.43528700052794        2.05503268273366       -1.85843913723277
C           94.15859719172536        2.58199121920511       -2.30610322048681
C           93.20686578032684        1.88502379102212       -1.65080145220755
C           93.90447094283968        0.93154857610369       -0.81015527107837
N           95.23934689941555        1.05808581800863       -0.95206297911650
H           92.16446019170873       -2.03173032851330        1.75460545617963
H           94.07423404671884       -3.45750895393025        2.98082545415983
H           95.92288962664962       -0.58928071690536        0.49375586637186
H           95.82452888457988       -4.93456001318334        0.84331116456683
H           97.58718814728464       -4.87109640282691        0.81665208013621
H           96.76380809918707       -6.41302156376375        1.11216926355445
H           96.75353157098765       -7.11919293685981        3.34846053845401
H           96.41978691672365       -6.65631571141574        7.02663150158990
H           96.19736188271712       -7.81078683893039        5.69808403678563
H           97.82384756301268       -7.32187467629984        6.18312905866471
H           96.77083552875658       -4.30567886848995        6.57342217327918
H           95.85424384643896       -1.51736099188274        4.74128766162002
H           96.77430886113693       -1.99584973175647        6.17852629239681
H           97.61770787942582       -1.50192774679107        4.69973827511240
H           99.35469360597997       -3.42237829753498        2.99705983787237
H          101.25683435984716       -1.97810022772634        1.74345167377826
H          101.22666202925460        1.96487435378856       -1.80840274421659
H           99.31650271349211        3.35289576512471       -3.07643552160165
H           97.46906807503335        0.54798767915521       -0.51713905460131
H           96.61113081039728        1.77480403829217       -6.21301598668739
H           95.80926659174136        1.32554507140575       -4.69702033134626
H           97.57086516183952        1.36240738785142       -4.78168697264643
H           96.64094505852006        4.06859939435544       -6.69459290879993
H           96.22264120701318        6.40447312505816       -7.22048406794329
H           97.66843510485532        7.07980807052644       -6.45999569595476
H           96.06955621311562        7.61222512195871       -5.93000141541738
H           96.62498103350765        7.00029731729283       -3.57663423845687
H           97.52224586512739        4.88297969777622       -0.97509059298131
H           96.63382822989780        6.37847497247549       -1.31571031026235
H           95.75824935641431        4.87465245979053       -0.97867407718341
H           94.03649686009081        3.37716188102831       -3.02399782417274
H           92.13483610646891        1.98296996817589       -1.71420201959626
C          106.75307864207457       -0.03492689668222       -0.03851885128056
C          107.38336332267150       -0.96395035724426        0.81266446676576
C          106.74632729842024       -1.89740803839785        1.67070440394036
C          107.72174597590940       -2.61154171399785        2.31265946228633
C          108.98225713151801       -2.13164457902616        1.86438339905769
N          108.72685779000071       -1.13629765795144        0.95928853779282
C          110.24193131437752       -2.58306055113523        2.26901998288800
C          110.25195378406906       -3.69236593820173        3.26811737144934
C          110.22311894196305       -5.02123462870648        2.83474842456526
C          110.18411361596183       -5.33142144570092        1.36203247667127
C          110.23044447875569       -6.04594019529432        3.77336547212873
C          110.26494634104689       -5.76717329081680        5.13619099723820
C          110.29136125938702       -6.88892994752604        6.13896544298432
C          110.29480713866410       -4.44169173271445        5.55564622760305
C          110.28831262892912       -3.40051546951673        4.63437795050043
C          110.32035218980744       -1.96819787787082        5.09686014580353
C          111.46982816342933       -2.09327900440367        1.83093585094310
C          112.74643038701748       -2.60295594960402        2.29773132665015
C          113.69848874429228       -1.88614092148496        1.66436687813347
N          111.66664409465400       -1.08987060648021        0.93048658108220
C          113.00070893015149       -0.94389221411031        0.81155633690850
C          113.66663999860302       -0.01792834046764       -0.01829555228369
C          113.03626213885505        0.90806188066357       -0.87267355421685
C          113.67339281468072        1.84656325248545       -1.72514267163267
C          112.69815806329576        2.54184113895067       -2.38767681732072
C          111.43770776458980        2.04675389468800       -1.95597733918821
N          111.69296683808436        1.06193986481341       -1.03937936958160
C          110.17828997044131        2.47922926008094       -2.38119495535721
C          110.16896006311003        3.56656227994286       -3.40413479075405
C          110.20261454875757        3.24429986900721       -4.76369379965060
C          110.24751997746883        1.80234481896462       -5.19423363133688
C          110.19333994798146        4.26434099227847       -5.70813175139921
C          110.15033834652351        5.59867324694705       -5.31844748317514
C          110.15962745695323        6.69647437317349       -6.34769428574490
C          110.11816274562892        5.90770284409083       -3.96225081870915
C          110.12655500611970        4.90435679457422       -3.00069517095333
C          110.08761789928650        5.24666576660151       -1.53517226800267
C          108.95031068689482        1.99325083111938       -1.93887606332065
C          107.67378601921625        2.49377114812506       -2.41564837320153
C          106.72160774669392        1.79771887046990       -1.75970965858045
C          107.41923360529958        0.87269140475940       -0.88813169195761
N          108.75344306169696        1.01063337073060       -1.01591038465400
H          105.67857763415277       -2.00255667477317        1.77624786721996
H          107.58778736188313       -3.40062194301365        3.03480216752265
H          109.43707551513370       -0.60379422326396        0.46818164944470
H          109.27010682856672       -4.93473995549775        0.91560783847748
H          111.03180778670060       -4.86810847954971        0.85410535504732
H          110.21745094149034       -6.40676642909094        1.18981657838613
H          110.20777050990107       -7.07748333089717        3.43733718947040
H          109.93885850259235       -6.54955171789749        7.11304947548357
H          109.66701517591741       -7.71919029458490        5.80719324374677
H          111.31242366090972       -7.25954159948875        6.25553908751262
H          110.32215483892624       -4.21430852245439        6.61630668157410
H          109.44053096470040       -1.43274156321248        4.73498094722728
H          110.34152129014623       -1.91077721381532        6.18469353007592
H          111.20395790687144       -1.46292536646588        4.70246078851253
H          112.86852068208145       -3.40093539223797        3.01251082697226
H          114.77064695041682       -1.96728199889278        1.74681085837422
H          114.74105580483919        1.96697483546182       -1.81389135631928
H          112.83209652620346        3.32960200278953       -3.11126024326151
H          110.98286261662008        0.52227264099135       -0.55599551931767
H          110.21794852435397        1.71932885094865       -6.28022549402895
H          109.40034305465693        1.25501635126447       -4.77713396740397
H          111.16199621832413        1.32780355919355       -4.83278831774336
H          110.21775058709987        4.01354111723631       -6.76358179257774
H          109.76045332741087        6.34238141650614       -7.29832129393789
H          111.18297671192525        7.04057170110580       -6.51494973077895
H          109.56757140690385        7.54809800662621       -6.01127131443843
H          110.08399301407837        6.94615422492606       -3.64930084664401
H          110.96535041659004        4.84215576324774       -1.02754316401696
H          110.06520927305230        6.32599910259083       -1.38797457108672
H          109.20210226359370        4.81127556043747       -1.06833424300149
H          107.55191734731997        3.27212392580548       -3.15177938093373
H          105.64943028086444        1.88049276206500       -1.84027849881372
C          120.26612816111883       -0.01680021352884       -0.01985746478257
C          120.89583099632293       -0.94627083015876        0.83125545773907
C          120.25792382982492       -1.87352208602494        1.69536112057007
C          121.23257448754086       -2.59170141263197        2.33389032190520
C          122.49341732636849       -2.12083864477891        1.87702010713533
N          122.23900111872032       -1.12564648909772        0.97146735766828
C          123.75245746204770       -2.58183725913029        2.27253942785004
C          123.75999706670154       -3.69136586109807        3.27139400700273
C          123.72925268995236       -5.01990135298817        2.83709820979631
C          123.69263148293599       -5.32896363584553        1.36409538864613
C          123.73123545732938       -6.04517406326123        3.77509536052389
C          123.76214165330632       -5.76729682646677        5.13819494487564
C          123.78115437642440       -6.88986160672936        6.14024201663018
C          123.79447787475215       -4.44215592725261        5.55855774297456
C          123.79323890259766       -3.40040523165390        4.63789215546838
C          123.82676799795148       -1.96837131782652        5.10114889635571
C          124.98080927300140       -2.10277047882687        1.82397149418193
C          126.25688859249729       -2.62237935336469        2.28100032970925
C          127.20963198628564       -1.91334193659036        1.63993016247841
N          125.17850374124362       -1.10154120018834        0.92130943631742
C          126.51274976264202       -0.96592042172272        0.79209415677036
C          127.17963706652752       -0.04450431006444       -0.04207447037474
C          126.55008356724237        0.88478771647439       -0.89346203962448
C          127.18786459579580        1.81752473297256       -1.75171755170905
C          126.21297632351600        2.52043244927947       -2.40671064150283
C          124.95207577831142        2.03598679444703       -1.96444166613171
N          125.20670017362758        1.04912799245879       -1.04990944235980
C          123.69282988512515        2.47960725406017       -2.37887468347816
C          123.68446376465582        3.56810046897279       -3.40059511018897
C          123.71174163935102        3.24706331739450       -4.76060849095327
C          123.74754793256650        1.80532102881229       -5.19274226751414
C          123.70430109106111        4.26807847463280       -5.70398414447394
C          123.66930455350737        5.60222508008173       -5.31281321630841
C          123.68118265508420        6.70097044726047       -6.34102207928490
C          123.64284473773922        5.91001288828010       -3.95622834849538
C          123.64953658394799        4.90565691253157       -2.99568959076649
C          123.61679624120723        5.24676277462847       -1.52973914873160
C          122.46449195675763        2.00275187999249       -1.92798043602049
C          121.18830549369153        2.51218558437031       -2.39617352296746
C          120.23567978425184        1.81978492531491       -1.73701994145789
C          120.93270672233041        0.88895286705955       -0.87118267961314
N          122.26690037900160        1.01963841087322       -1.00562711228800
H          119.19015802543919       -1.97168070252892        1.80725705564727
H          121.09790786088449       -3.37814053140946        3.05876664713847
H          122.94955232713855       -0.59933803630791        0.47422055085344
H          122.78399579824872       -4.92342556874168        0.91465353669733
H          124.54646523373289       -4.87334950707955        0.85945028339486
H          123.71663562072602       -6.40449047011461        1.19138453274862
H          123.70658905509657       -7.07645267730852        3.43839078735131
H          123.42780225183384       -6.54960481727983        7.11371129914820
H          123.15373071575750       -7.71694572694203        5.80629990219116
H          124.80017137375008       -7.26534889962092        6.25899631191431
H          123.81915102621429       -4.21549974955638        6.61944017867118
H          122.94388143448806       -1.43383648263713        4.74532540192649
H          123.85460463651503       -1.91161344558467        6.18886587607193
H          124.70709868718284       -1.46169166452337        4.70135129687368
H          126.37806668614088       -3.42073420969485        2.99552186317737
H          128.28172759451871       -2.00308118075329        1.71376026240621
H          128.25570707230457        1.92893563643501       -1.84964929392623
H          126.34750572374894        3.30674081799539       -3.13176797246107
H          124.49610398443151        0.51581521082252       -0.56023677476371
H          123.71102305074163        1.72345517502850       -6.27860094849125
H          122.90048407600310        1.26144305348801       -4.77097362380039
H          124.66205147895488        1.32630605435252       -4.83734805606716
H          123.72390330447590        4.01823917059073       -6.75976266406566
H          123.27610769140504        6.35024954346838       -7.29040346063259
H          124.70596445890267        7.03891047341656       -6.51200725457658
H          123.09572537046948        7.55589724828538       -6.00146174140992
H          123.61468581740334        6.94829550914899       -3.64211529763863
H          124.49197797560419        4.83405382197003       -1.02435927141012
H          123.60403278241778        6.32609769991338       -1.38141849718592
H          122.72845956244781        4.81869600457476       -1.06147423109079
H          121.06689859018429        3.29305328212489       -3.12970222387900
H          119.16358220856073        1.90913793598256       -1.81136999503212
C          133.77954046859068       -0.05511051006466       -0.04924378940752
C          134.40820481017727       -0.99473252667227        0.79117479630664
C          133.76959922632483       -1.92677905235194        1.64978491847165
C          134.74337907285386       -2.65658062160234        2.27606855887166
C          136.00470001790205       -2.18959871993712        1.81584738087967
N          135.75107814856688       -1.18328257549063        0.92232580093204
C          137.26265353842024       -2.66632564503418        2.19496496228863
C          137.26866658711410       -3.78519502773208        3.18340573108379
C          137.19670601587578       -5.10913569717584        2.74038530131969
C          137.11827955889757       -5.40603288930048        1.26648149354282
C          137.19609119562159       -6.14162474542152        3.67062961287814
C          137.26463090627544       -5.87534502748596        5.03455757560526
C          137.28024904451976       -7.00497348790796        6.02869497056278
C          137.33814415121810       -4.55457431406223        5.46369979304855
C          137.34041733772440       -3.50594839616952        4.55103871010040
C          137.41874488505277       -2.07895919963332        5.02434986832794
C          138.49164190313616       -2.19199000973789        1.74171596376513
C          139.76697893981171       -2.73363812249627        2.17523575632783
C          140.72063638211185       -2.01665509671045        1.54457197404973
N          138.69026233202152       -1.17228945920046        0.86124018686456
C          140.02531122757139       -1.04160512579542        0.72724761692708
C          140.69215413691114       -0.09195087454570       -0.07283315720211
C          140.06404536941420        0.86537177707278       -0.89248151362979
C          140.70311428510530        1.82118236735571       -1.72458521379642
C          139.72951946699095        2.53402510952712       -2.37021425455493
C          138.46774438830147        2.03427943685912       -1.94721476982429
N          138.72068813637486        1.02913938784260       -1.05258879854569
C          137.20944513037423        2.47828544027637       -2.36377723478853
C          137.20212132136342        3.57923748323474       -3.37216110468837
C          137.21796121361967        3.27297377224395       -4.73582668819629
C          137.24306381789873        1.83585814231140       -5.18377084710001
C          137.20878075170452        4.30414634019189       -5.66801566457992
C          137.18348571853107        5.63412032169170       -5.26214682170703
C          137.19202608915191        6.74378561118529       -6.27861157234126
C          137.16978590174298        5.92723415755058       -3.90213461393443
C          137.17832956456496        4.91244127764386       -2.95257487158508
C          137.16056920525401        5.23775976183785       -1.48279064004966
C          135.98042769934850        1.98955806155358       -1.92742588396115
C          134.70477711438699        2.50211878659097       -2.39394752911353
C          133.75131299445405        1.79975393080638       -1.74674429922745
C          134.44724830972257        0.85954194562855       -0.89004049439876
N          135.78162568857701        0.99413355596047       -1.01878041942075
H          132.70191461602067       -2.01960565893732        1.76697184584515
H          134.60795249341766       -3.44857791685656        2.99473283729099
H          136.46213336669481       -0.65568866403068        0.42717952903752
H          136.19667214443248       -4.99765013008622        0.84689202942033
H          137.95680483445426       -4.94564950201971        0.74108869887852
H          137.13733166729264       -6.48010227950016        1.08437635707835
H          137.13941619787695       -7.16932172766762        3.32690898300127
H          136.92847337001507       -6.66994777095510        7.00459761381159
H          136.65021469484026       -7.82790666664471        5.68967221849449
H          138.29826314959482       -7.38402686989892        6.14493456627842
H          137.39227913122895       -4.33695098616673        6.52538359515120
H          136.55242699167138       -1.51457358429565        4.67413880143315
H          137.45080695051422       -2.03098240249916        6.11238230464901
H          138.31382843481254       -1.59711731175251        4.62646699915011
H          139.88692454890025       -3.55133971266033        2.86776748602384
H          141.79251058722917       -2.11668944038087        1.60772083291581
H          141.77107790503106        1.93864582116310       -1.81361715577371
H          139.86507619576648        3.33611226631606       -3.07759449126725
H          138.00925622591902        0.48138159668085       -0.58039983340548
H          137.22056494494959        1.76650330783876       -6.27089284978303
H          136.38357548619027        1.29763047057011       -4.78013862419848
H          138.14653158470040        1.34185319445322       -4.82090832182909
H          137.21916396078521        4.06570472671058       -6.72656382107492
H          136.77633681621018        6.40541299339191       -7.22789548349327
H          138.21699427183842        7.07807697404802       -6.45550038685991
H          136.61431675804957        7.59811698443047       -5.92458918623757
H          137.14979407622508        6.96218757080035       -3.57660286547394
H          138.05163151461829        4.83745351691292       -0.99531360269505
H          137.12940427059101        6.31507770458484       -1.32289904475324
H          136.28837238225898        4.78726620633631       -1.00551288581939
H          134.58441355641318        3.29260078425031       -3.11729356238013
H          132.67928135198363        1.88803858323852       -1.82335894294130
