134
 energy: -271.679298696565 gnorm: 0.000522980927 xtb: 6.5.1 (b24c23e)
Co          15.76207117115469        0.04645254775499        0.05441392825973
C           12.39047514807711        0.12916573126037        0.08622192760670
C           13.04168880115521       -0.43539798485778        1.16176957697010
C           12.37488793415660       -1.00938942357034        2.29097033386477
C           13.32898890733689       -1.26614752592482        3.21623067876305
C           14.57667528405963       -0.83685088635894        2.65455153977535
N           14.39827968907373       -0.39668170914187        1.36824379636529
C           15.77013877853471       -0.76640803589781        3.36065557561485
C           15.77344360121433       -1.10132947836889        4.80272720500214
C           14.98379378093668       -0.37261648221838        5.69579046361363
C           14.98808157525775       -0.67649393463465        7.04704916575578
C           15.78330309561230       -1.72044952376799        7.49120866549488
S           15.79683238917785       -2.10617872547682        9.20140861994528
O           15.41737781940058       -0.96642994196726        9.98290523106634
O           14.56369762977557       -3.16313453372389        9.21162264529076
O           16.99306700595242       -2.81143731023265        9.55657270167860
C           16.57700571220035       -2.46086024642957        6.63033433508919
C           16.57055435893177       -2.14380475934851        5.28198551341015
C           16.95872649324124       -0.38263575276882        2.75719422537076
C           18.20316467097802       -0.22969799201869        3.44895707085560
C           19.15303752050277       -0.02939523811227        2.50363875870473
N           17.13745866944220       -0.20873880753616        1.40441932331130
C           18.48545330378299       -0.05231891911834        1.24096484532004
C           19.15243109857017       -0.06618901792458        0.01319293510099
C           18.45965124698723       -0.05164012736271       -1.20007345179664
C           19.09823360421523       -0.11555997159632       -2.47630263798888
C           18.13966462510176        0.12634629983270       -3.40282430639219
C           16.92043416453117        0.35069104795090       -2.68578188746695
N           17.11701254543494        0.16549438172296       -1.33659016003195
C           15.74604344722501        0.80995482497609       -3.26410529784409
C           15.74062625537103        1.15600009275017       -4.70311419486941
C           14.86453381850384        0.51219039963200       -5.58066610755270
C           14.85265840121420        0.83714911875940       -6.92710495897384
C           15.72338952378248        1.81315729424769       -7.38343888071465
S           15.70153357646937        2.24267434697488       -9.08394266709076
O           16.18022661126238        3.57954756500913       -9.28423027564644
O           16.85811112017800        1.23179942696132       -9.61030057342262
O           14.45378492702575        1.86269603621082       -9.67428323018347
C           16.60117960326011        2.47151967347722       -6.53741537022741
C           16.60757596507519        2.13601952649813       -5.19375738632817
C           14.57603278038573        0.95905687518525       -2.53056625092910
C           13.34771880093601        1.47589744137266       -3.06024126741489
C           12.39961580368587        1.27692808627929       -2.11462452086265
C           13.05197267525143        0.65306222041579       -1.00383470963113
N           14.39653643625996        0.51917418835045       -1.24449019895755
H           11.30765182992447        0.16434585747443        0.09893086997122
H           11.31144772297862       -1.17685204183750        2.35197735830618
H           13.21272638631210       -1.70238242582318        4.19507595239623
H           14.37797039342536        0.44757870659733        5.32878597724410
H           14.39003114938679       -0.11047839538089        7.75011383237516
H           14.43046410986884       -3.51408937136652       10.10052564861832
H           17.19040890147402       -3.26690861078075        7.01292333739425
H           17.17700686262289       -2.71615609070544        4.58979744537660
H           18.32302334205826       -0.27131710109270        4.51925793982736
H           20.21368998531677        0.11370708227249        2.63258231336046
H           20.14722411994945       -0.31368406884630       -2.62622274958290
H           18.23876958720343        0.15514016015889       -4.47564638914004
H           14.19931673495371       -0.25670013535375       -5.20551571406388
H           14.17670655423169        0.34566382659550       -7.61543178609402
H           17.22255819361174        1.55062546760576      -10.44497662910762
H           17.26008830724486        3.23798903688276       -6.92570647074777
H           17.27630911930537        2.64924762257924       -4.51266896606860
H           13.23829090385577        1.92805017312525       -4.03256945980425
H           11.34912634647121        1.51745948457897       -2.14975514923509
Co          31.71131434901747        0.06309288427597       -0.03307098535410
C           35.08294340547992        0.15198013258728       -0.03197172838816
C           34.43179261721836        0.02491863923164       -1.24005472410001
C           35.09869109203359       -0.09087170271431       -2.50141139470179
C           34.14463475432154        0.01246871014402       -3.45610249486052
C           32.89688117026917        0.20351985451513       -2.77558582886410
N           33.07520321491707        0.13711173888584       -1.41765828739414
C           31.70337467237255        0.52967272594934       -3.40571141721123
C           31.69992337024655        0.75095321642238       -4.86952263298851
C           32.48946080243563        1.75789908369638       -5.43061750670080
C           32.48508273136031        1.97419160308534       -6.79862886984458
C           31.68990882951898        1.16778385640797       -7.59670286355829
S           31.67635824963133        1.44044404360865       -9.32853355728713
O           32.05531082299139        2.78830536101584       -9.63417075013571
O           32.90989982949317        0.46238638245302       -9.72805816710552
O           30.48035695102804        0.91559652125076       -9.91897748969595
C           30.89627194496937        0.16189248432874       -7.06983362647982
C           30.90278889416707       -0.04105464383976       -5.69966231987718
C           30.51476763725611        0.66301530235931       -2.70314869717657
C           29.27027224824117        1.06049509943843       -3.28947393996857
C           28.32036575174579        0.89679287573704       -2.33716464187917
N           30.33602741897377        0.32445136553345       -1.38192802351145
C           28.98797706688889        0.40865335370030       -1.17245366030505
C           28.32096839056674       -0.05829403543367       -0.03687154779257
C           29.01366496186685       -0.49231730972661        1.09623456038475
C           28.37500566728601       -1.02252023347089        2.25883388234492
C           29.33352616063775       -1.13951521108423        3.20930505401734
C           30.55276880087400       -0.66631094495713        2.62575236211219
N           30.35624487399394       -0.34043758819160        1.30345468734231
C           31.72722094410823       -0.45320636550019        3.33274591836483
C           31.73280273275872       -0.66318505651998        4.79782079744203
C           32.60876506754659       -1.58582287796191        5.37534952408683
C           32.62082288030494       -1.78123081461102        6.74660930992301
C           31.75040540999161       -1.04258566087196        7.53130580734282
S           31.77193903247669       -1.27162160463966        9.27020991201049
O           31.29302355602227       -0.10319549928916        9.94991797357523
O           30.61514147201936       -2.40520984682392        9.38629754043695
O           33.01957785502848       -1.84265067393698        9.67874083336665
C           30.87276161695240       -0.11804525545860        6.98844239794126
C           30.86619542678514        0.06654358963056        5.61589866056730
C           32.89724669732232       -0.04373803332411        2.70616914593858
C           34.12552423461124        0.24088508081767        3.38937194166326
C           35.07366953976469        0.40533717611784        2.43719650071467
C           34.42137448440712        0.23594677945577        1.17448350799408
N           33.07679710647994        0.02264316387350        1.34858369519444
H           36.16576205194659        0.18946251532670       -0.03071199352282
H           36.16215873750175       -0.22376308361772       -2.61994427692367
H           34.26098408473637       -0.03097864091044       -4.52686471640828
H           33.09522728760243        2.38480617884065       -4.78682334031430
H           33.08304140180238        2.75977745492129       -7.24319808068310
H           33.04340454944895        0.46453004984896      -10.68369316354818
H           30.28289501164172       -0.44609631061838       -7.72288347002354
H           30.29638458658973       -0.82848847737268       -5.26755512656885
H           29.15042085182722        1.41758868641026       -4.29930754118242
H           27.25965184324671        1.07702343528904       -2.40419309270061
H           27.32604507388074       -1.26213353681132        2.32494189923395
H           29.23434451812921       -1.50858072152088        4.21706639205840
H           33.27376947812648       -2.16189402875214        4.74261181397781
H           33.29669360879011       -2.49239355315851        7.20454944668025
H           30.24486657822594       -2.41074483107456       10.27734921940434
H           30.21414099081533        0.45095653202536        7.63253471469559
H           30.19759587986690        0.79524699294792        5.17266751357956
H           34.23488602632063        0.30187244489467        4.45995816100272
H           36.12414623479930        0.61589782171126        2.55873777230602
C           24.35109419588923       -0.10871404463801       -0.02340622462951
C           23.12231164969484       -0.10962063972636       -0.01854831511219
C           21.77888635067898       -0.10334601355012       -0.01032532412036
C           20.55478461293996       -0.09081142036628       -0.00127385775118
C           25.69450961641914       -0.10126275762967       -0.03111912210762
C           26.91859712181771       -0.08590769256592       -0.03287223388936
