237
 energy: -373.048545175831 gnorm: 0.000348674788 xtb: 6.5.1 (b24c23e)
Co          27.90856376276336        0.02792045182152       -0.04302221043038
C           24.52047694258975        0.11835399715664       -0.11721745890473
C           25.18733316582090        1.13516771716561        0.53060271351354
C           24.52673253699350        2.22522654688048        1.18281633088131
C           25.49563024978819        3.07670334267497        1.59248298435666
C           26.74569754073806        2.50664215588629        1.18398190544100
N           26.54979234226854        1.29605742232734        0.56886608987992
C           27.95949927595453        3.16325874725238        1.30384253146455
C           27.98488757855866        4.53320405254047        1.88852276420944
C           27.79794300121660        5.64651898816576        1.06433951031676
C           27.56408988072910        5.45910015376405       -0.41100549513675
C           27.83055895932575        6.92027100313901        1.61996715921918
C           28.04418124006100        7.10045881846852        2.98252550368081
C           28.09987164243534        8.48464269033148        3.57035409568467
C           28.22757066527378        5.98469893762589        3.79318592610810
C           28.20036480136170        4.70183994193213        3.25931771361467
C           28.40167210383915        3.49880037588585        4.14161881857620
C           29.15019906105209        2.59509851713461        0.88742453376996
C           30.41389449968478        3.26235775645612        0.97346612378309
C           31.35463367634252        2.36362531424581        0.59783880724065
N           29.31203285248013        1.30668797370764        0.43019986466129
C           30.66251526845132        1.15227680667659        0.28752746483941
C           31.31755796443674       -0.04205836817304       -0.01958146286254
C           30.61948934082096       -1.21411481873923       -0.31752711478725
C           31.26608156071350       -2.45746676109296       -0.59781723634187
C           30.29247712185127       -3.32980488471900       -0.95121645969316
C           29.05521682013122       -2.61191431762422       -0.88986857083845
N           29.26456581572189       -1.32053389253331       -0.46039264509744
C           27.84936877666969       -3.13713413155728       -1.31830608487304
C           27.82508497752872       -4.52013471411981       -1.87144163200456
C           28.06556529168693       -4.73034256627553       -3.23279697934457
C           28.34498719249459       -3.55895665619448       -4.13620741740629
C           28.04645634121661       -6.02486653305139       -3.73670829124979
C           27.79386737090174       -7.11249720833902       -2.90554217496635
C           27.76759056617578       -8.50570129837545       -3.47389787690048
C           27.55483948384928       -6.89099135234882       -1.55402053754330
C           27.56775773673360       -5.60388462401786       -1.02789392270556
C           27.31060268734566       -5.37121696005002        0.43705121073942
C           26.66689194294499       -2.41772545326626       -1.25869020161007
C           25.40773182858710       -2.92675449475063       -1.71657610163678
C           24.47149822198569       -2.00796407782357       -1.38347292605486
C           25.16042039243121       -0.94211856784098       -0.72052805117189
N           26.51101524814777       -1.18342626331143       -0.68097802250755
H           23.43772175057636        0.15039110444414       -0.14715716742610
H           23.45749906817299        2.31159850255135        1.29401431105136
H           25.39434112828507        4.01513407473415        2.11359353965031
H           26.65046880614902        4.88564139225022       -0.57928479330047
H           28.39177154008545        4.90665466435552       -0.85957354281160
H           27.47046925982964        6.42027228976427       -0.91552432652338
H           27.68637264042679        7.78471439172135        0.98009667283514
H           27.71682723277211        8.48840347766325        4.59120209749126
H           29.13407909950149        8.83603261197488        3.59534149495490
H           27.51758680066853        9.18556657427711        2.97191254740004
H           28.39378995540954        6.11615580205082        4.85741302543113
H           29.29479805618729        2.95074678750450        3.83520593652570
H           28.51479710747711        3.79496943041156        5.18403929459806
H           27.55015009313664        2.82085362561219        4.05972730067757
H           30.54580949378814        4.28435808417832        1.28996960606869
H           32.42398933155823        2.48832432665548        0.54104371419143
H           32.32983257834708       -2.62101244172477       -0.53441956231887
H           30.38609606148147       -4.36380638646678       -1.24126939343049
H           27.52130121828593       -2.84381170850687       -4.09671979764211
H           28.47636312266400       -3.88528039296665       -5.16742413918471
H           29.25125569763519       -3.04170204109111       -3.81522823387594
H           28.23359259244083       -6.18963279181795       -4.79281658895415
H           28.61114619670461       -8.66160110890429       -4.14775500867622
H           27.80854723014451       -9.25219516185403       -2.68076387664948
H           26.84860532183844       -8.65965083050849       -4.04381369575195
H           27.35737718970021       -7.73244866291175       -0.89796776437779
H           26.42785257826888       -4.74306086631207        0.57112422763641
H           28.15810736541645       -4.85692567261588        0.89400714606036
H           27.15061863857171       -6.31415506388683        0.95898995960111
H           25.27787291344871       -3.87235269590040       -2.21803139267364
H           23.40635526495586       -2.03481206697401       -1.55030457157832
Co          65.00342088223425       -0.00548803204673       -0.07051414905851
C           68.38684923920673       -0.02683439091573       -0.18313344655478
C           67.71605817018445       -1.21121944712231       -0.39973298279914
C           68.36754015864402       -2.46149923712618       -0.64960649048349
C           67.39482794172247       -3.35253371195252       -0.95352895516376
C           66.15127708004256       -2.64192667785661       -0.89672368259604
N           66.35447517203298       -1.34106789140045       -0.51099101742185
C           64.94312215664139       -3.17514754124476       -1.31579790487896
C           64.91244247309696       -4.56714758221238       -1.84515943414460
C           65.15256126837158       -4.80481358469663       -3.20130674794549
C           65.44712503007594       -3.65368059122203       -4.12573514443699
C           65.11593813920089       -6.10841715399192       -3.68278202226110
C           64.84660826636519       -7.17659103691650       -2.83374675126033
C           64.78828792893293       -8.58226410668852       -3.36787640157591
C           64.61033037455007       -6.92780121594201       -1.48531048107404
C           64.64006907553672       -5.63272501256618       -0.98226024835118
C           64.38214528223391       -5.37018279617983        0.47749189670261
C           63.76371002082154       -2.45270115308823       -1.26962019822035
C           62.50670216934671       -2.95666128150090       -1.73382364428195
C           61.56932299011885       -2.04104850035519       -1.39080667121292
N           63.60274514332984       -1.21746712652487       -0.68398881142490
C           62.25577076740873       -0.98599969500909       -0.71352561958857
C           61.59946476368117        0.05475955407540       -0.05274199823432
C           62.29933455668662        1.06190250925434        0.61551292456031
C           61.65993734464253        2.11920263368202        1.33372510995561
C           62.63532794956220        2.98445445128367        1.70102697695740
C           63.86701927822508        2.45251519683275        1.20121292319445
N           63.65310377327077        1.24512505643099        0.57535845416687
C           65.06747587265049        3.13999161025288        1.23431323689633
C           65.09447092983405        4.51292234910099        1.81151090342848
C           64.81215209704150        5.61506259880669        0.99860038463246
C           64.48425645392814        5.41149055294738       -0.45652971718577
C           64.83618562456033        6.89116025965791        1.54739024283381
C           65.13444465993672        7.08574062191141        2.89295409575734
C           65.16721338172474        8.47735140893953        3.46485233629297
C           65.41463863323648        5.98234706134438        3.69110680542690
C           65.39810501442655        4.69613030932838        3.16300180981483
C           65.70134066601705        3.50545465215141        4.03289355418110
C           66.24235856057508        2.59667105051778        0.73995683088627
C           67.49833467789959        3.28730801368716        0.73883707687072
C           68.43349918407382        2.39600095771692        0.33470971534645
C           67.74775232167761        1.16250217695356        0.09250336082363
N           66.39827402273417        1.30752316357336        0.29778713559932
H           69.46976561162829       -0.03325900042556       -0.22136010426072
H           69.43415236554026       -2.61370689283139       -0.60181678166191
H           67.49050534606042       -4.39528096323373       -1.21052225961021
H           66.35461648467337       -3.13634531027082       -3.80844655077821
H           64.62817781555101       -2.93224196406808       -4.10663388906595
H           65.58350352027290       -4.00138204727281       -5.14929052446675
H           65.30149249696007       -6.29296325082901       -4.73587184694988
H           65.15298723536725       -9.29398181194778       -2.62662618829476
H           63.75581623513372       -8.84504452115439       -3.60993509418557
H           65.38535865604895       -8.67967393206632       -4.27474385558652
H           64.40045027726262       -7.75555152296871       -0.81577073410892
H           63.49960503079051       -4.73889735907294        0.59782850844497
H           64.22066456921209       -6.30225422920941        1.01817177205757
H           65.22944630236964       -4.84728600358540        0.92486605531542
H           62.37577202915619       -3.89658279089746       -2.24524792525240
H           60.50459921813976       -2.06893950817045       -1.55797218366220
H           60.59879769337424        2.18074256318302        1.51429722580417
H           62.54569840234804        3.90874219069864        2.24857512942520
H           65.29533663365051        4.88033984240601       -0.95800225644302
H           64.32829164676386        6.36631200390747       -0.95769454243044
H           63.57848106237441        4.81078408138977       -0.55958917981263
H           64.61712026354613        7.74739964954025        0.91778734733383
H           64.32107842851016        9.06235842177263        3.10204924561006
H           65.13703042131166        8.45301105330906        4.55412928094182
H           66.08421373181265        8.98547218437635        3.15809322009114
H           65.64797613926920        6.12389455339136        4.74133099104611
H           66.57992843760837        2.97707330463185        3.65771948233143
H           64.86321479943240        2.80614367451950        4.02477512497454
H           65.89129924656994        3.81237468331428        5.06093366085524
H           67.62768457875448        4.31867202460520        1.02534796579581
H           69.49663140051493        2.53555882825768        0.21904531207185
C           32.72022015708389       -0.06639822756153       -0.02095824726377
C           33.94492168073039       -0.08238772969292       -0.02259746189179
C           35.28652070070419       -0.09717266256077       -0.02229227588769
C           36.51770470867916       -0.10607299893866       -0.02433882136122
C           37.85436842375012       -0.10985708897771       -0.02375667706490
C           39.08577797178824       -0.10836637295431       -0.02167302044622
C           40.42694655641278       -0.10263709375457       -0.02081714123062
C           41.65215219232414       -0.09438608770650       -0.01867311085479
C           51.26444791784544        0.07077982354977       -0.02315708050955
C           52.48947234895747        0.09073199301157       -0.02585078803336
C           53.83084517136071        0.10648607113860       -0.02997468122085
C           55.06207867214142        0.11446663160879       -0.03401004061270
C           56.39905333451954        0.11570137591629       -0.03879506658835
C           57.63013505215397        0.10882615648182       -0.04401468695754
C           58.97206112130868        0.09638581723974       -0.04751199940863
C           60.19666506727231        0.08045651180980       -0.04879837462172
Co          46.45898113546913       -0.07429703811105       -0.01088584110419
C           43.05325876893348       -0.08123566050545       -0.01663030015033
C           43.72844400535346        0.33555022588919        1.13437045848618
C           43.06317187067428        0.75413337116628        2.32789195928489
C           44.01833895709863        0.87773246482906        3.28113526934841
C           45.26269423508501        0.53653173860230        2.66196685731975
N           45.07859765260549        0.25765363860780        1.32728220577056
C           46.45038475330731        0.37968992439202        3.35681020590031
C           46.44323800066383        0.54603215072463        4.83654135212864
C           46.72105981773107        1.79439219491592        5.40058272401450
C           47.03007816846475        2.96894774853262        4.51115999418275
C           46.70653312764519        1.93633993289984        6.78306956455055
C           46.42062173491574        0.85474144369328        7.61004402962314
C           46.42760369575215        1.01724066850211        9.10596091550473
C           46.14824313282420       -0.38312432857014        7.03689961602103
C           46.15519491394045       -0.54842883133595        5.65690997668399
C           45.85543653356936       -1.88989273054277        5.04299643445678
C           47.64390327743508        0.07316354821034        2.72389973015310
C           48.88775577847280       -0.09522524329542        3.41108739993455
C           49.84899045162646       -0.18112200158322        2.45936226989113
N           47.83584595799094        0.04346662971983        1.36216471151944
C           49.18712915280300       -0.06829922520702        1.19819117565998
C           49.86317624283017        0.04183576512673       -0.02074716949807
C           49.17954187709574        0.11424763084832       -1.23791348018771
C           49.83420968516177        0.23790965199652       -2.50212683187287
C           48.87656077159416        0.09581578076375       -3.45030800314243
C           47.64187636171673       -0.11570441969655       -2.75813088501211
N           47.83245968784693       -0.04853162133132       -1.39715398759471
C           46.46182823441386       -0.47923379605341       -3.38539665822942
C           46.46136993990172       -0.66792520573357       -4.86246246450465
C           46.12887626097504        0.40088853681042       -5.69955863170576
C           45.77234823918607        1.73782284627947       -5.10653245824347
C           46.13052615367353        0.21441369271986       -7.07696250854117
C           46.45485927056409       -1.01950818336558       -7.63093918376077
C           46.47135221137130       -1.20566257976841       -9.12401861854718
C           46.78377521744551       -2.07586501788524       -6.78728336884027
C           46.79071878831592       -1.91238204859544       -5.40721824033198
C           47.14631166452335       -3.05958730052718       -4.49964412023490
C           45.28057772494031       -0.67081071716565       -2.68760576003897
C           44.04820321154665       -1.06191270476760       -3.30089073865976
C           43.08812068488208       -0.94870191622408       -2.35086174837224
C           43.73908566590158       -0.49015924874737       -1.16448560663573
N           45.08502526022782       -0.36642411680168       -1.36058551053229
H           41.99983448524633        0.91055051809556        2.41237619057843
H           43.90615915175268        1.15867985487222        4.31580794863381
H           47.92456755067712        2.76917693866345        3.91803206989309
H           47.19621739099751        3.87024003064997        5.10035876608747
H           46.20488722893759        3.14915502264007        3.81970372912650
H           46.91957592687094        2.90570690409820        7.22163763581349
H           47.43387275048960        0.84232753522736        9.49382418299632
H           45.75330539729539        0.30223740727985        9.57781558179999
H           46.12658800864488        2.02635536970045        9.38839669313707
H           45.92455952060524       -1.23238043394361        7.67418297037094
H           44.96970388405819       -1.82603366440366        4.40796482456095
H           46.68966852653768       -2.21715483744007        4.41967645001602
H           45.67896481657098       -2.63979224158734        5.81345570986594
H           48.99543078144465       -0.12729116869163        4.48321951363025
H           50.91348229592743       -0.29896316341263        2.58299698244545
H           50.89274066214220        0.39773635989871       -2.62963793586304
H           48.98161380030647        0.11425889395443       -4.52301389723466
H           44.88801183444681        1.64680993576353       -4.47286986859678
H           45.56737653560579        2.46824774413705       -5.88855658250404
H           46.59036230740892        2.10850204926256       -4.48607899290283
H           45.87268295237197        1.04394681644423       -7.72718151631631
H           46.17571194377161       -2.22047536888473       -9.39160171579980
H           47.47941584229979       -1.03398916948151       -9.50862138328172
H           45.79728905927331       -0.50113365156610       -9.61156140054586
H           47.03708865517169       -3.04216243743611       -7.21096632021256
H           47.34817747164634       -3.96270707374031       -5.07471933547108
H           46.32892370993213       -3.26158113834801       -3.80492823588317
H           48.03215026985503       -2.81512548273721       -3.91026104389925
H           43.94624307101849       -1.36803919961000       -4.32946877299965
H           42.03041117452432       -1.14056950528524       -2.43299736473091
