236
 energy: -428.523341362418 gnorm: 0.000869937058 xtb: 6.5.1 (b24c23e)
Ni          54.56436566895644        0.04298506993149        0.03561530902239
C           51.17957047960518        0.04488423340525        0.11791292284079
C           51.83107774004768        1.26113665167084        0.14157021072822
C           51.16240583748389        2.52637412098796        0.15148868258725
C           52.11956783011869        3.47086714965426        0.30915328169335
C           53.37160197563574        2.77980683663134        0.41517997262560
N           53.18857849826791        1.42918432067465        0.25632016408316
C           54.57965008915959        3.39017421138344        0.73140960357494
C           54.59396067985679        4.84041225764097        1.02709240927372
C           53.82148666085168        5.36156877132079        2.06798664308878
C           53.83812350623395        6.71598611577036        2.34823975398789
C           54.62883320429013        7.58023167559134        1.58507009424857
C           54.64693247562356        8.97493958086779        1.86978612120553
N           54.66063691089855       10.10214003423667        2.10069960068090
C           55.40233118983971        7.06434299401338        0.54099713948164
C           55.38468405302157        5.70815060135751        0.26958813192808
C           55.77727807347362        2.68701451184799        0.79059336588487
C           57.02286755875109        3.25624382774649        1.20712635492679
C           57.97089423145131        2.30770785568818        1.01183978296139
N           55.95565974894273        1.38091747443008        0.39694714753906
C           57.30435898805366        1.16261598241240        0.47950698683726
C           57.97018225648092        0.03030974614790        0.00167748750097
C           57.28776117594181       -1.09297925757101       -0.47428392692488
C           57.93525190581741       -2.23426004576724       -1.03735402284088
C           56.97441437672686       -3.16823462393520       -1.24050569591095
C           55.74134977502233       -2.59642524480224       -0.79143630710232
N           55.93872127310110       -1.29985013139456       -0.37476897221357
C           54.54110513429410       -3.29255574355567       -0.71270476760522
C           54.53190057092199       -4.73532238306565       -1.04380167964255
C           53.72082571143659       -5.22092762016714       -2.07240530109135
C           53.71196788268173       -6.56788644673945       -2.38687980827726
C           54.51494823115979       -7.46018239160055       -1.67030189449326
C           54.50814889737813       -8.84722626022054       -1.99076123037083
N           54.50594060952627       -9.96767880292858       -2.25265429362054
C           55.32584645533131       -6.98005292695125       -0.63753979790333
C           55.33389834591814       -5.63097928904019       -0.33220213119873
C           53.34956754433973       -2.68489961521331       -0.33419181331931
C           52.10335507719414       -3.37695681860359       -0.17869588600048
C           51.15808394951970       -2.43566255654131        0.05265936692160
C           51.82827531762679       -1.17114878155349        0.05062150665854
N           53.17767909938809       -1.33784216054293       -0.13900814964457
H           50.09631565683391        0.04491295636958        0.14763848487592
H           50.09674270674515        2.65517443372309        0.04890622837104
H           52.00090080451697        4.54140395457122        0.35039153831907
H           53.21837980103986        4.69308642716313        2.67192743613281
H           53.24062434850692        7.11175910964594        3.16111322428459
H           56.01443066890112        7.73145954916869       -0.05457074155294
H           55.97654527914414        5.31379510661935       -0.54872856843553
H           57.14579323453209        4.25032269509694        1.60490419457881
H           59.02894812086989        2.36542538472472        1.20835827517269
H           58.98998979897959       -2.29861583280288       -1.24943834725995
H           57.08128522802489       -4.15468994419218       -1.66125570722670
H           53.10671741427749       -4.53029137614998       -2.63921039338608
H           53.08456143455840       -6.93591283998222       -3.19020109323465
H           55.94637589308349       -7.66954572566622       -0.07721671875821
H           55.95457027812613       -5.26456634167026        0.47770729803883
H           51.98097836852693       -4.44626430807772       -0.23764907590336
H           50.09924366054234       -2.56597640572914        0.20955557625143
Ni          87.12744603793499        0.01206965527093        0.08128897308090
C           90.52085259922038        0.01813802253053        0.23153520314507
C           89.86886523881101       -1.18463097788921        0.40301776116791
C           90.55061136887574       -2.42547437148389        0.61170416750447
C           89.59567888157086       -3.37436347349517        0.74695151181867
C           88.33044624500791       -2.70859874839270        0.63579426318666
N           88.50850705682795       -1.36739041354460        0.40582038479890
C           87.10709698047478       -3.35496772786941        0.75158106490867
C           87.09486026825557       -4.80650061681215        1.05350472402798
C           87.61454662058439       -5.27853832623573        2.26074718429477
C           87.59199865057826       -6.62966074564575        2.55675425295899
C           87.05110687497321       -7.53815171881004        1.64219583330478
C           87.02311240713917       -8.92892946910356        1.94524006464922
N           87.00027247370146      -10.05204738613455        2.19452576237853
C           86.53549280818177       -7.07087788478147        0.42975155528909
C           86.55615894413242       -5.71760508062624        0.14275614990856
C           85.89201294046836       -2.69646758431434        0.61957669823018
C           84.62284168119017       -3.33513723580073        0.79827484332337
C           83.67681936460754       -2.38653645006221        0.60266306061408
N           85.72428302956783       -1.36131472304794        0.33179508956098
C           84.36911473216718       -1.17139090873087        0.31032766156416
C           83.71347694771494        0.02970240447926        0.03994591473909
C           84.38779156525887        1.21811716979827       -0.24057626164330
C           83.71539834428297        2.42866284346557       -0.59214316309947
C           84.67653751492271        3.35452845036738       -0.82079008674714
C           85.93429245658766        2.71065129178354       -0.58861886234587
N           85.74529953559957        1.39059906733693       -0.24802180408880
C           87.15887517299106        3.35548871371455       -0.69582401075446
C           87.17648710677690        4.79146508384588       -1.06477316426182
C           87.76788790563407        5.20119476582132       -2.26165504248603
C           87.78064159903704        6.53744653400993       -2.61941677118544
C           87.20450198055026        7.49344573239608       -1.77766469604488
C           87.21563427174709        8.86948515619215       -2.14274670207832
N           87.22259055377533        9.98060958250164       -2.44187043080593
C           86.61709206251592        7.08856525073960       -0.57548574437452
C           86.60263784468025        5.74976268415082       -0.22686098637769
C           88.36953172867474        2.71554749152973       -0.46613476816875
C           89.63799052844962        3.38397938329252       -0.48922883655585
C           90.57761652009012        2.45044925796050       -0.21320452134465
C           89.88298440689339        1.21385245667274       -0.02201016356673
N           88.52865216295800        1.38659552977318       -0.16372670494609
H           91.60320747223558        0.02145247721346        0.28615852486992
H           91.62286383808687       -2.53601940318945        0.63937793864622
H           89.72257296061633       -4.43355339486416        0.90098494702105
H           88.02317616978441       -4.57507206629813        2.97733015938639
H           87.99026548058325       -6.98813167638630        3.49869550595309
H           86.11937009810899       -7.77307956311154       -0.28307652207357
H           86.16302546572237       -5.35943480134124       -0.80194792031432
H           84.48410590004669       -4.37288173055827        1.05342656497255
H           82.60445683739158       -2.48409722860868        0.65425156525830
H           82.64515735654669        2.53679448652069       -0.66357011110655
H           84.55469371490652        4.38080170273152       -1.12607229157919
H           88.20659117819972        4.46073250141871       -2.92090804607812
H           88.23498496850975        6.84761330952684       -3.55308648557731
H           86.17394945167514        7.82776703745085        0.08146966808380
H           86.15549839828920        5.44046770247131        0.71106176781805
H           89.77560744131702        4.43577857348515       -0.68039976990174
H           91.64708506014540        2.56758340316572       -0.14085409596643
C           59.37858195940836        0.02458658506624       -0.00818105083643
C           60.59497066521232        0.02103260712337       -0.01756123098614
C           70.22222702282465        0.01342026276989       -0.02495165594170
C           71.43843598863351        0.01642137687887       -0.02699251785772
C           81.08713096169063        0.04386874543639        0.02636165463027
C           82.30217105457423        0.03870369330266        0.03265678078729
Ni          65.40926344674892        0.01830543965392       -0.03244346809605
C           62.00288280774868        0.01973857418444       -0.02525137562868
C           62.67851853224953       -1.18959693225681       -0.21541012427312
C           62.02742039450718       -2.45327601795914       -0.34695227726088
C           62.98134145507649       -3.34996725842424       -0.69945865555387
C           64.21365992642342       -2.62800845089086       -0.78812683360827
N           64.02456897143247       -1.31351129595479       -0.42908881079273
C           65.40482479475506       -3.16239573083556       -1.26663812526347
C           65.39986438213583       -4.53776688456934       -1.81161705718576
C           64.55208459170728       -4.87634268678009       -2.86951852324305
C           64.54993911825993       -6.15816344038980       -3.38909110409654
C           65.39728208571567       -7.13295071396600       -2.85395082504969
C           65.39907155040910       -8.45268053022886       -3.38781451971779
N           65.40184378976687       -9.51872980809900       -3.82084529801541
C           66.24377964918693       -6.80129863608010       -1.79184808125964
C           66.24397543395136       -5.51627392290189       -1.28014439802797
C           66.59953082203045       -2.45179477151749       -1.25362116909750
C           67.83384752731459       -2.93298090582807       -1.79521761517642
C           68.79119554962091       -2.04144249613569       -1.43924436638575
N           66.79134011507992       -1.24043886698839       -0.62960254640774
C           68.13905133259232       -1.01365571635432       -0.69290983472156
C           68.81440759099092        0.01359940622229       -0.02748534940503
C           68.13964914375991        1.04375633117348        0.63434121087187
C           68.79244200401691        2.07202724459884        1.37944524794823
C           67.83741252590592        2.97025324342985        1.72481084982052
C           66.60387777403896        2.49131584212365        1.17977107936567
N           66.79336740900655        1.27572888583153        0.56347522945976
C           65.41165056610181        3.20598427577367        1.18459242872753
C           65.41027106858591        4.58542854192195        1.71912691439004
C           64.56376215052313        4.93440652055387        2.77462137683247
C           64.56430096431544        6.22058418202667        3.28336447168910
C           65.41305038442719        7.18916066784266        2.73933851168406
C           65.41780606815546        8.51388145775167        3.26069212455669
N           65.42380297280866        9.58396020884336        3.68374306172002
C           66.25882523120761        6.84678720521494        1.68000760865868
C           66.25660629686261        5.55743202793209        1.17940658647766
C           64.21947576105801        2.67097462155666        0.70974732316515
C           62.98782786411118        3.39378677351043        0.62009160542951
C           62.03124887214867        2.49506879315323        0.28011536032501
C           62.68039769356787        1.22976491231208        0.15541265694095
N           64.02741101345747        1.35390866393647        0.36126671995521
H           60.97486113099713       -2.62050318650763       -0.18656478205580
H           62.87000259826634       -4.40698776113590       -0.87802959144022
H           63.90431261307327       -4.11975284391033       -3.29777577223034
H           63.89391770940394       -6.41072130363533       -4.21386940760782
H           66.89859663911332       -7.55541160292747       -1.37120724702519
H           66.89179301395784       -5.26761725267830       -0.44713497492237
H           67.94489254839384       -3.83396843818645       -2.37610107025405
H           69.84635234847016       -2.06495490514485       -1.65837021436531
H           69.84631514904113        2.09157444213384        1.60493623563951
H           67.94937106956202        3.87424930055240        2.30082909575072
H           63.91476658961023        4.18261271841225        3.20943169483100
H           63.90914776082457        6.48129194970026        4.10629920405015
H           66.91487540312097        7.59615955007821        1.25287782825212
H           66.90403845878758        5.30009200214172        0.34873200961617
H           62.87833458743707        4.45240578566666        0.79012925169870
H           60.97845504847167        2.66279392675438        0.12228189339737
Ni          76.26267305397187        0.03813826760664       -0.01977497450497
C           72.84678345558086        0.02312892718533       -0.02604971074965
C           73.52421129735831       -1.17162530848602       -0.28135864234857
C           72.86152450564308       -2.41746658523811       -0.50034290849039
C           73.82009532202240       -3.31552687283755       -0.83234167303830
C           75.06639624008277       -2.61221119694124       -0.81858040345277
N           74.87712580395753       -1.30369047594664       -0.43686878438303
C           76.27801265345484       -3.17851376430506       -1.19265803677640
C           76.27972892945810       -4.56303237245272       -1.71933391131392
C           75.56792660289172       -4.87550847615277       -2.87992432598491
C           75.57236638432769       -6.16371868534037       -3.38372540983653
C           76.28791590136088       -7.16994853212160       -2.72799649968963
C           76.29563958272051       -8.49669995214651       -3.24431912703818
N           76.30338157368702       -9.56786246504752       -3.66449361991614
C           76.99687995670119       -6.86353978822779       -1.56274258919240
C           76.99306407284762       -5.57169719198266       -1.06785354320346
C           77.48651428413872       -2.50110095559579       -1.09552882458629
C           78.74322374695437       -3.04603383202443       -1.51112774481219
C           79.69399277074980       -2.14727863178776       -1.15968105376872
N           77.66176249625512       -1.25508754924898       -0.53888922776204
C           79.01483715075369       -1.05118421981765       -0.54530851710064
C           79.67650820151920        0.04359338016202        0.01262442944318
C           79.00128304891302        1.13855770916571        0.55319388367743
C           79.66593912924466        2.24262816755150        1.16909981056369
C           78.70639521192717        3.14270290804153        1.49239808150771
C           77.45891230085982        2.58915004197579        1.06068489122806
N           77.64795159580963        1.33854745178743        0.51923985622064
C           76.24582461451364        3.26137737871235        1.13479424518563
C           76.23458731575317        4.65196640924673        1.64537004254127
C           75.51045983981186        4.97445410478544        2.79554228461269
C           75.50163770019704        6.26908434037888        3.28255852209050
C           76.21598993710654        7.27171133839300        2.62005091897924
C           76.20821493026087        8.60539166452576        3.11822140871889
N           76.20269617576106        9.68258676988727        3.52264148690440
C           76.93841705765726        6.95492925288701        1.46586901613893
C           76.94800533286887        5.65672310598529        0.98795669943122
C           75.04119076515398        2.68334834616976        0.75622044138701
C           73.78923436462298        3.37665648174816        0.75747531383499
C           72.83913960894434        2.46714605475129        0.43222528430425
C           73.51285207873929        1.22491614070465        0.22703338373845
N           74.86402707422430        1.36975044056502        0.38575073410244
H           71.79891687977914       -2.57163922369948       -0.40618734622468
H           73.70456655766235       -4.36280718858435       -1.05883823455436
H           75.02180391965238       -4.09487950601365       -3.39739899178567
H           75.02354307320208       -6.39703108381131       -4.28856661358121
H           77.54859094349870       -7.64219854226614       -1.04924177345860
H           77.53480029404993       -5.34046697194550       -0.15768777620005
H           78.87153200088679       -3.99197307917357       -2.01121160781076
H           80.76104606206373       -2.20529408127056       -1.30170509859092
H           80.73017721179018        2.30540813913080        1.32932737198941
H           78.82285851222557        4.09466490430197        1.98393972237401
H           74.96496784157996        4.19686814123430        3.31823810335283
H           74.94308363049163        6.51038753503490        4.17932187193995
H           77.48977853216756        7.73061717253443        0.94750982212473
H           77.50027495376365        5.41712011421562        0.08632130613568
H           73.66415047901506        4.42528257103838        0.97237913259411
H           71.77576719537738        2.61197108689686        0.33230698608131
