246
 energy: -429.673869050262 gnorm: 0.000743725717 xtb: 6.5.1 (b24c23e)
Cu          35.56596234533265       -0.00476964384836        0.00557590777927
C           32.16031226096508       -0.03707689617693       -0.02120077201789
C           32.79644098013581       -1.26754668694693       -0.08709496005118
C           32.12243431790525       -2.53351422431894       -0.13164522482171
C           33.08213956377213       -3.49084760815151       -0.17066586413344
C           34.35212886487837       -2.81731796957399       -0.15872027967719
N           34.14741055683267       -1.46859067151033       -0.10163060799250
C           35.59683428748218       -3.45080671974908       -0.17150138216233
C           36.82867130159765       -2.79681448891819       -0.12038464169082
C           38.10671638550552       -3.44783249317229       -0.17818847607261
C           39.05194550625247       -2.47575198869499       -0.12021546838064
N           37.01609064859041       -1.44176044636973       -0.03954503260082
C           38.35931405369684       -1.22534186605733       -0.03429591790706
C           38.99420228108757        0.02776190993168        0.02874376076004
C           38.33471819180541        1.26822084860683        0.08875760507561
C           39.00268040471932        2.53433679140521        0.12403978857204
C           38.03860840142441        3.48855691067775        0.16713144556080
C           36.77360680379944        2.81004018798018        0.16655119407309
C           35.52891816148441        3.44108452761452        0.19141626711651
C           35.51381800658857        4.92367887901699        0.27402918822197
C           34.96745193473946        5.68443085575055       -0.76022290995070
C           34.95738682264701        7.06909375263265       -0.68223611638243
C           35.48744021589263        7.70975029848621        0.42942257150305
C           36.03055152616423        6.95964107160921        1.46364825302439
C           36.04659336792991        5.57502674063308        1.38715790644530
C           34.29677273125968        2.78463953644870        0.14488798131588
C           33.01372220674599        3.42949012077539        0.21329517146155
C           32.07320223509871        2.45457290219939        0.14983716830209
C           32.77212338534542        1.20533911953123        0.05126521868943
N           34.11879188401505        1.43389924775454        0.05496740302401
N           36.98757282028563        1.45761004212779        0.11008845059723
C           35.61140137919922       -4.93420254052710       -0.24348566002810
C           35.09999650367434       -5.59369373942086       -1.36155831999281
C           35.11863409962431       -6.97895010454871       -1.42751108766553
C           35.64210194417004       -7.72103243623402       -0.37754747819460
C           36.15005860857567       -7.07197028099163        0.73958344464245
C           36.13800498623617       -5.68684514112892        0.80684425750795
H           31.07521314623576       -0.04800375656794       -0.01569182721876
H           31.05112318938426       -2.65928240663308       -0.12602165307100
H           32.94971868979025       -4.56059037121106       -0.19398234874981
H           38.25722561797305       -4.51169787298188       -0.26495396170297
H           40.12446371733514       -2.58533343980906       -0.13937490503288
H           40.07274236941544        2.66655348723056        0.11075675517036
H           38.16840794985919        4.55852079895437        0.18489273716700
H           34.56441990688769        5.18613821865530       -1.63496265675209
H           34.53472307232499        7.65051251358127       -1.49417459684506
H           35.47744800547382        8.79214437407924        0.48963255752358
H           36.44352880888455        7.45504792611189        2.33539494106059
H           36.46060065659904        4.99015229456111        2.20103312862575
H           32.85980174018029        4.49221870530505        0.30984231801671
H           30.99969854386057        2.55736615936257        0.17375209404774
H           34.70153298956308       -5.01516142174750       -2.18764042679132
H           34.72349259542175       -7.48116804293521       -2.30363718644959
H           35.65446073354906       -8.80380875415874       -0.42994727142735
H           36.55784459798769       -7.64704928049294        1.56355349932719
H           36.52531807124923       -5.18134033607527        1.68452208332948
Cu          91.38345446865661        0.04238568304947        0.01108882254299
C           94.78886309262963        0.07132036832975       -0.02505699039447
C           94.15444862352558        1.30435971567443       -0.03711124014428
C           94.83022125212260        2.57014127332344       -0.03008836803925
C           93.87184534561456        3.52958743970057       -0.02618748268155
C           92.60087295411819        2.85790461653037       -0.03892169461947
N           92.80374584960926        1.50771471020151       -0.03934003976724
C           91.35710192373885        3.49314305096441       -0.02022696393924
C           90.12455835541066        2.83912510740248        0.00963135270326
C           88.84715275887558        3.49357039032563       -0.01331279095041
C           87.90084880294981        2.52112628579487        0.01101014109061
N           89.93561133515591        1.48213596926438        0.03526393986095
C           88.59210896921707        1.26735245607746        0.04044315089972
C           87.95571041904006        0.01348548940634        0.05401276514162
C           88.61327766545878       -1.22935724544024        0.05339326220928
C           87.94330802619650       -2.49470461873385        0.03334250715077
C           88.90596870189135       -3.45131835705159        0.02649595017445
C           90.17211445257949       -2.77536481097451        0.05135399163503
C           91.41595094797938       -3.40864488047150        0.04343601755222
C           91.42928376879958       -4.89340567283758        0.05938979442227
C           91.97490772723071       -5.60767553315416       -1.00791873096223
C           91.98346372749367       -6.99444554427844       -0.99211211825818
C           91.45249260746944       -7.68375808607810        0.08960849337792
C           90.91016321469617       -6.98018458187794        1.15642694632377
C           90.89579778253083       -5.59351427579251        1.14219107714575
C           92.64886271894166       -2.75225637409177        0.02317090241837
C           93.93121083022480       -3.40102937617012        0.06093809388242
C           94.87288683354144       -2.42543166458193        0.03830220850101
C           94.17543203470194       -1.17224626347472       -0.00459397825305
N           92.82847280730181       -1.39907351298760       -0.00800145089739
N           89.96018653337597       -1.42148242316793        0.05843419656144
C           91.34472838391012        4.97820375923391       -0.02967508051171
C           91.85484606283701        5.68349322281354       -1.12006740105656
C           91.83883471963293        7.07032883923193       -1.12727305585434
C           91.31914381766695        7.76829032386952       -0.04565890093736
C           90.81236399267968        7.07347989482519        1.04416022267623
C           90.82198879513862        5.68674328093800        1.05279292070323
H           95.87398690232880        0.08049669625473       -0.02157689981483
H           95.90171942643053        2.69416327744511       -0.02206954212325
H           94.00585709921981        4.59916593876816       -0.00466973718147
H           88.69765492485664        4.56026486151104       -0.05564182353871
H           86.82841185970285        2.63284901696798        0.00343428782079
H           86.87294286270583       -2.62446050556595        0.01948272619830
H           88.77434342261535       -4.52072418736251       -0.00556696057841
H           92.37854978593306       -5.07113701943694       -1.85944694368926
H           92.40568039029795       -7.53932147220650       -1.82923777020484
H           91.46119947449469       -8.76777669684475        0.10115944175078
H           90.49652152393612       -7.51372162047610        2.00504923547957
H           90.48261789931063       -5.04534233183604        1.98163299226786
H           94.08400796545703       -4.46711587758630        0.11105329927219
H           95.94629408488993       -2.53047742318693        0.05576302316518
H           92.25040237388136        5.13966425527010       -1.97075850460727
H           92.23334307522818        7.60846038902793       -1.98211190470616
H           91.30897124679774        8.85233376032508       -0.05206131432172
H           90.40734544616150        7.61395975113925        1.89255854762498
H           90.43548982734377        5.14529180276940        1.90914472413011
C           40.39917881288663        0.04142070721726        0.02109985588681
C           41.62357255954114        0.05064958682331        0.01284023957469
C           42.96592722380851        0.05730545443102        0.00735627055639
C           44.19653279948221        0.05830839735374       -0.00189226232699
C           45.53403930732151        0.06087346511694       -0.00458324898621
C           46.76476110646520        0.05733786176445       -0.00880392051518
C           48.10686744699896        0.05403943593308       -0.01060861341763
C           49.33156108803068        0.04898165937776       -0.00926375479688
C           59.00894066877729        0.04764198143516        0.03730166659751
C           60.23375367763365        0.04610206566371        0.03334185662849
C           61.57572394136915        0.04641921999427        0.02969581992080
C           62.80660994083303        0.04408704190553        0.02456246691815
C           64.14386899907244        0.04415179413358        0.02149403968552
C           65.37474912354773        0.04026799382939        0.01741725101645
C           66.71670963097982        0.03783295232373        0.01645316019765
C           67.94149959401190        0.03244186869896        0.01502834199189
C           77.61850149952392        0.02267487056612        0.04175543954309
C           78.84316990569847        0.01780995587022        0.04910677635379
C           80.18520267437731        0.01226204221168        0.05517363604270
C           81.41586953043273        0.00420749950293        0.06024902108172
C           82.75332167829318        0.00301132772659        0.06473433375673
C           83.98393407680494       -0.00000619491371        0.06201340674903
C           85.32626829094411       -0.00019922821529        0.05874930745679
C           86.55071634255674        0.00257918074065        0.05677700121635
Cu          54.17025667523678        0.04787891994161        0.01552848050162
C           50.73575514593937        0.04813703982073       -0.00409841630666
C           51.38381999564788       -1.20043192086198       -0.00453925064792
C           50.70512908814848       -2.46063136984916        0.03307416365434
C           51.66108405962252       -3.42428747728411        0.01809021541883
C           52.93028994481985       -2.75685463573135       -0.03706038700389
N           52.72825758213096       -1.40207414765247       -0.04417722534111
C           54.17028762729483       -3.39801095626549       -0.05709101387054
C           55.41027258738605       -2.75653350741601       -0.05093701626807
C           56.67944391960067       -3.42105795845189       -0.13362855109558
C           57.63540648435487       -2.45759059277805       -0.10841049799907
N           55.61233858360587       -1.40317151621526        0.01262547812685
C           56.95676122661098       -1.20003670227686       -0.01822019175079
C           57.60482260843016        0.04759059307999        0.03446421786216
C           56.95629124867153        1.29519218136786        0.08346591475950
C           57.63401265237042        2.55221266669684        0.18645304075643
C           56.67799810349629        3.51588445573063        0.20280453576344
C           55.40989151717713        2.85202779245838        0.10123249642735
C           54.17006857669820        3.49374287302459        0.09109467645821
C           54.16877579316617        4.97827624649936        0.12436073603026
C           53.59510350984768        5.66020446030553        1.19812517777364
C           53.59553085207674        7.04665503787317        1.22859925141726
C           54.16233967051031        7.76763889511745        0.18639713924491
C           54.73249990830305        7.09624195628164       -0.88661566196248
C           54.73939966559596        5.70977252236862       -0.91784719607061
C           52.93039091289996        2.85270783200906        0.05250654746267
C           51.66220673220901        3.52038935142284       -0.02000639105103
C           50.70625585703966        2.55694889404693       -0.04570582306215
C           51.38408629027784        1.29666957266423        0.00200683242751
N           52.72797645815289        1.49800709440847        0.05771814381123
N           55.61240115930243        1.49871760424983        0.03673813597937
C           54.17031243621427       -4.88273602176161       -0.08533599824446
C           53.61628150299298       -5.57000598757398       -1.16589054172662
C           53.61953936300767       -6.95663085964763       -1.19038630075496
C           54.16939712717335       -7.67232119149956       -0.13553502129436
C           54.71996461003000       -6.99550722626165        0.94429797524234
C           54.72404254317234       -5.60894860552254        0.96965401368070
H           49.63452706652093       -2.58231449150963        0.07402547053459
H           51.52324560816829       -4.49277733003247        0.05442061162831
H           56.81732853965079       -4.48710028123719       -0.21460388604601
H           58.70598386234953       -2.57776633141320       -0.15388281726166
H           58.70392574030808        2.67190292022575        0.24677485025801
H           56.81504051606456        4.58158836936799        0.28947357206479
H           53.16181881299202        5.09799357232164        2.01790232014354
H           53.15155619977514        7.56633852172992        2.07044263030798
H           54.15960172236828        8.85148483204914        0.21036982915948
H           55.17359914438338        7.65493141929461       -1.70465164386328
H           55.17477033795549        5.18665113254187       -1.76202108183440
H           51.52501528913719        4.58881949208714       -0.06017694926800
H           49.63632793863626        2.67904912887918       -0.10036594703737
H           53.19623317322957       -5.01208883309451       -1.99543830022355
H           53.19096248241453       -7.48076372278603       -2.03745488343796
H           54.16892217448473       -8.75625220383384       -0.15512744390862
H           55.14810193356330       -7.54989612930861        1.77210300719839
H           55.14435490992373       -5.08142516364634        1.81871074064657
Cu          72.78006267398169        0.02793201218105        0.02295213044537
C           69.34560592179352        0.03102170655721        0.01578562626566
C           69.99277972134060       -1.21818536201026        0.01495045069305
C           69.31326926163133       -2.47781475017295        0.05669573531207
C           70.26836407474984       -3.44231717802265        0.03792440961548
C           71.53778296615575       -2.77599643576995       -0.02306059998123
N           71.33684758578107       -1.42093546600627       -0.02968743590928
C           72.77710920243872       -3.41809241846377       -0.04944970396685
C           74.01754132476070       -2.77747156283287       -0.04815182945287
C           75.28591871663197       -3.44294633753899       -0.13598513501820
C           76.24272970608487       -2.48033461561250       -0.11152506782859
N           74.22080160467566       -1.42444555767105        0.01643006672489
C           75.56530890567618       -1.22241906495596       -0.01748270280704
C           76.21436067210524        0.02459368628297        0.03481522100538
C           75.56731401273457        1.27289437788749        0.08007043087361
C           76.24668556969061        2.52961491615133        0.17563204364757
C           75.29169108307221        3.49424482991262        0.19174207049824
C           74.02252476720757        2.83118508024702        0.09759672139118
C           72.78322341320980        3.47404684666532        0.09242287245122
C           72.78451794276258        4.95866478355101        0.12415518718447
C           72.21987916634143        5.64275901557260        1.20128909845606
C           72.22466807401469        7.02923529368273        1.23111883493697
C           72.78678669542413        7.74808947612405        0.18493101447173
C           73.34797544096669        7.07452037479218       -0.89146431910750
C           73.35054692218458        5.68802638761606       -0.92207206905068
C           71.54281879925603        2.83411297090383        0.06111177029966
C           70.27486541106161        3.50269286271427       -0.00597948253921
C           69.31803868979326        2.53997729547334       -0.02717231579113
C           69.99502213728418        1.27912959083698        0.01817798101896
N           71.33926627576156        1.47945164244518        0.06825692842611
N           74.22347293682421        1.47759922207725        0.03660722228650
C           72.77682934254516       -4.90274564750399       -0.08135278432017
C           72.21952041309116       -5.58650846221238       -1.16243404306624
C           72.22504983461957       -6.97299452676933       -1.19275503037625
C           72.78045454716970       -7.69205622700569       -0.14314055206536
C           73.33365454531138       -7.01875119150327        0.93755166568652
C           73.33557823214144       -5.63229499610239        0.96865176568060
H           68.24277471221495       -2.59874644358381        0.10231558545373
H           70.12996443800473       -4.51070725814709        0.07553525770225
H           75.42265354433955       -4.50893008946385       -0.21946778046321
H           77.31306812911403       -2.60120672714267       -0.16065545010478
H           77.31696306618940        2.64838399697180        0.23103703870081
H           75.43024790089522        4.56013385413949        0.27343012495368
H           71.79054175513981        5.08224717703339        2.02429206372673
H           71.78801570256040        7.55062887966770        2.07573206986483
H           72.78753406423536        8.83195076700937        0.20845442707396
H           73.78565978471157        7.63151559756608       -1.71248842912121
H           73.77923972598390        5.16323408478321       -1.76863378394679
H           70.13850757260970        4.57125996401852       -0.04577836455928
H           68.24799233595495        2.66298299666182       -0.07741207065954
H           71.79550106177308       -5.02580709412730       -1.98805911180386
H           71.79438733403798       -7.49420566217132       -2.04056010209849
H           72.78221007371630       -8.77589545783223       -0.16718557740153
H           73.76601067754785       -7.57596227959148        1.76125566772762
H           73.75849088097610       -5.10759887849348        1.81817498743475
