276
 energy: -443.399208611818 gnorm: 0.000389297059 xtb: 6.5.1 (b24c23e)
Cu          50.24922039660677        0.04415123162642       -0.08238151848668
C           46.84156488148337        0.08943577866439       -0.14372007275173
C           47.47555764318007        1.27502431748615        0.19634322299527
C           46.79950521034996        2.49227576364237        0.54372970964773
C           47.75746810645432        3.40744152988364        0.83328120341534
C           49.02860596621872        2.75917833610674        0.65745379975292
N           48.82579408152559        1.46393533789263        0.27561111398867
C           50.27105014446535        3.35516057259700        0.88093749796638
C           51.50421507251725        2.71640938879332        0.74046236184108
C           52.77931099694665        3.34262814725242        0.94510395338472
C           53.72769391718955        2.40535547292183        0.69297192142230
N           51.69718969221105        1.41533532535740        0.35769083948951
C           53.04196480421433        1.20423334751649        0.32182551959301
C           53.68033947688585        0.00308972179947       -0.03013417291583
C           53.02375678373777       -1.18400426087151       -0.39624598031033
C           53.69097888393161       -2.38308957548301       -0.80525474791196
C           52.72821244296066       -3.29663863876548       -1.08852423766429
C           51.46290018392943       -2.66252140604563       -0.84994472883195
C           50.21925229039991       -3.26941243773736       -1.03732027097863
C           50.20903885572358       -4.69523923619057       -1.45115391173950
C           49.64779596215266       -5.07037063061052       -2.66932076596547
C           49.63959257707962       -6.40583810178895       -3.06393834286192
C           49.02539328900240       -6.79171965774900       -4.38268492272252
C           50.19576665788752       -7.36631427347906       -2.22775978234043
C           50.76007232296248       -7.00716591564171       -1.00505142315937
C           51.35642182540582       -8.06425194911578       -0.11512659133751
C           50.76452548427790       -5.67183212294787       -0.62301021994325
C           48.98546570478829       -2.63713922468900       -0.86920205416072
C           47.70371684836982       -3.27183803555174       -1.01557918173953
C           46.76076830212331       -2.32826061188538       -0.77124736647721
C           47.45664316063584       -1.11179660993400       -0.46328417331572
N           48.80380829183628       -1.32840517484309       -0.52434924363304
N           51.67563487648892       -1.37306887670443       -0.43928527708184
C           50.28233110474729        4.77970558595924        1.30259023360209
C           49.81046155709820        5.77042220057055        0.44309239115218
C           49.82249090951820        7.10595042866749        0.83082060364398
C           49.33848140333564        8.17518881614800       -0.11120517016563
C           50.30765596512022        7.44629798129478        2.09012564149553
C           50.77985689023465        6.46828208664606        2.96016117723853
C           51.27952690282337        6.84417429614877        4.32907697523679
C           50.76610192796456        5.13622504091308        2.56016573673853
H           45.75644618694094        0.09980120091199       -0.15030920453555
H           45.72796360159482        2.61489883876854        0.56530920239979
H           47.62339184100431        4.42979816535887        1.14848478120324
H           52.92625148727515        4.37015862829787        1.23601148526508
H           54.79889489909795        2.51085663529860        0.75174346070305
H           54.76020265722911       -2.49998848053981       -0.87765932246787
H           52.85946878167194       -4.30587745454751       -1.44381364683210
H           49.23025258022687       -4.31126045587356       -3.32184914015140
H           49.19249099055575       -7.84677313069183       -4.59874472445224
H           47.94922844161670       -6.60802682680474       -4.36361699781901
H           49.45313871898825       -6.19636295736166       -5.19092991511752
H           50.19295102439725       -8.40898847413462       -2.52862688047081
H           51.77374735572853       -7.62369259453766        0.79011419409477
H           50.59474982105735       -8.79204778075099        0.17078313682604
H           52.15005481793379       -8.59795295762646       -0.64115067048562
H           51.18839598169324       -5.38080006224827        0.33191886097604
H           47.55196887603785       -4.31058071516233       -1.26142642439871
H           45.68738913210746       -2.43467138419362       -0.78697879326130
H           49.44661688686718        5.49377882364629       -0.54046559458835
H           48.88081230835697        8.99819321956417        0.43833149405292
H           48.61062883248003        7.77251003119368       -0.81579651060263
H           50.17970135882251        8.57510600901468       -0.68207149615927
H           50.31803280562771        8.48716296726597        2.39702882959468
H           50.44988571913900        6.84401850676290        5.03984081045973
H           51.71919043401562        7.84180693734867        4.32168154733563
H           52.02626070720343        6.13127021526000        4.67927878731636
H           51.12065207268883        4.36356670919148        3.23363294926751
Cu          82.96720137386652        0.01686622626512       -0.08522872215625
C           86.37351681514454        0.07152755288927       -0.12484571143941
C           85.75137538701718       -0.75189669009191       -1.05130392589507
C           86.43973262366974       -1.59054812018116       -1.99055078415366
C           85.49123126349163       -2.25732336749298       -2.69402753689904
C           84.21343959569187       -1.82756186921428       -2.19426629771847
N           84.40315377429044       -0.91466136677901       -1.19669705721915
C           82.97784294770543       -2.30603699052600       -2.63485111553103
C           81.73897593958426       -1.92367933244253       -2.11736584979496
C           80.46899165945146       -2.39259857554107       -2.59516655045312
C           79.51227840089869       -1.76582367993317       -1.86467970994240
N           81.53492980059528       -1.01726743474390       -1.11098787943856
C           80.18861140382367       -0.90360249187181       -0.94215739085443
C           79.54016938679567       -0.03950688758313       -0.04511313066538
C           80.18193253011268        0.84430426736103        0.83763557377501
C           79.50019055656826        1.73247294368263        1.73084129645118
C           80.45298391082410        2.39467050803430        2.43484037981446
C           81.72568102674570        1.90880578693456        1.98197065133954
C           82.96274090943690        2.33632294629672        2.46854970488600
C           82.95802030651114        3.31882636835077        3.58187078569032
C           83.52154018867415        4.58112290803007        3.41314308034667
C           83.51882360504392        5.50269512452327        4.45717543299099
C           84.13942840448956        6.85948992223848        4.25924126177273
C           82.94946569730062        5.15063816839323        5.67503961339230
C           82.38185990293839        3.89130329349880        5.85970558854235
C           81.77380435942132        3.52977959647368        7.18808844714148
C           82.38837054842804        2.98121493603153        4.81051166552232
C           84.20297211017177        1.90554360185853        1.99243436005187
C           85.47830231838546        2.31538113887555        2.51481410959345
C           86.43061898661568        1.68591845203763        1.78264480457874
C           85.74700731446374        0.87719558129723        0.81427714233568
N           84.39786160586429        1.02211654092538        0.96952583382463
N           81.52768728311622        0.97660124997501        0.99836852345719
C           82.98272521524314       -3.29478396080332       -3.74343710233493
C           83.45910326826602       -2.93201005603437       -5.00202995726183
C           83.46345117030560       -3.84950282686501       -6.04756285728336
C           83.95297630311808       -3.44228015948877       -7.41120586345198
C           82.98987876802390       -5.13868290370728       -5.82487060559815
C           82.51320594879728       -5.51669170905468       -4.57280308298603
C           82.02636872990676       -6.92159954038783       -4.33996974528276
C           82.51061368301922       -4.59001308686921       -3.53606863890548
H           87.45869587161503        0.07778599198459       -0.12781624769647
H           87.51243023290760       -1.65594144270435       -2.08412617214804
H           85.63606005223301       -2.98693754464453       -3.47456779395089
H           80.33103057965252       -3.10044274325517       -3.39644725904054
H           78.44136761963590       -1.86395094796010       -1.94468191084360
H           78.42888934895653        1.83199109971911        1.80284646291265
H           80.31100464671937        3.15365668797425        3.18710583711229
H           83.94991490995027        4.85155184793903        2.45411894141602
H           83.91823915621701        7.51741828352878        5.09947739754718
H           85.22374584499040        6.76550224071465        4.17007118153261
H           83.76600984008547        7.32094419198515        3.34386841916938
H           82.94440964859331        5.86361711657119        6.49317856507897
H           81.32053299507983        2.53925499598426        7.15418675138144
H           82.53843793778648        3.53561997603973        7.96726792655473
H           81.00713216014063        4.25564869533509        7.46457417709739
H           81.96220641328594        1.99303172121739        4.94516557408967
H           85.61970918545363        2.99057795210627        3.34341519316184
H           87.50282491893402        1.74898612737693        1.88318493091117
H           83.81383924080444       -1.92034429981233       -5.16644247405306
H           84.36451243969806       -4.29731551054280       -7.94795554505518
H           84.71946856220642       -2.67082185319175       -7.33414974672765
H           83.12398010333668       -3.03969276916015       -7.99788638127937
H           82.99196684130801       -5.85863109930520       -6.63690098856374
H           82.87290029565779       -7.57662312524077       -4.12148730010011
H           81.52038866911741       -7.30753107276836       -5.22543982267393
H           81.33877241272157       -6.96050966557093       -3.49503266662387
H           82.15338091877344       -4.87601459075670       -2.55278596785677
C           55.09143365633833       -0.00859772876933       -0.02442141134311
C           56.30786793071693       -0.02058204620150       -0.02013018006751
C           66.00436950664773       -0.11969590457610        0.05836855995311
C           67.22116016108077       -0.12654323880514        0.06598799651865
C           76.91302594067665       -0.06410627793860       -0.02634562797833
C           78.12874619420538       -0.05290766297187       -0.03677670182559
Cu          61.15726868598829       -0.07142066223847        0.01389997521313
C           57.71846884030186       -0.03440570111483       -0.01312158787866
C           58.38176750530172        1.17709759027233       -0.27312605529864
C           57.72252196535836        2.42420364197215       -0.51906587149893
C           58.69139863967326        3.34840300154873       -0.74150450977526
C           59.95094959799505        2.66826080091794       -0.64317384671080
N           59.73007219864343        1.34837495476898       -0.35222388701960
C           61.19889369024310        3.27196344548020       -0.80738466104342
C           62.43075379054466        2.63187962591308       -0.66114704210997
C           63.70591006660462        3.24304463041735       -0.90427902461115
C           64.65104872340346        2.29819463661931       -0.66664222819518
N           62.61866555028153        1.32673179501577       -0.29056199688391
C           63.96132143629960        1.10397123249268       -0.28168886574176
C           64.59517107415361       -0.10757267232751        0.04567045942378
C           63.93093795457260       -1.30623563434567        0.35861737033546
C           64.58865085586555       -2.51654275653434        0.74924685059801
C           63.61970433721732       -3.44248751120876        0.96479463578020
C           62.36213638048538       -2.80326360791139        0.70251541438002
C           61.11452271069432       -3.41773884455955        0.82301525588523
C           61.09726026263088       -4.85993515262303        1.17732662593450
C           60.51893674910267       -5.28428548252720        2.37176048131692
C           60.50150471603376       -6.63450558449204        2.70816624741928
C           59.89780596196877       -7.08021419781669        4.01271649710890
C           61.06411455749286       -7.56101472598826        1.83693398551139
C           61.64269033003525       -7.15264980198268        0.63754963914665
C           62.25118886005595       -8.17041378546971       -0.28922811771516
C           61.65992517345293       -5.80105204220424        0.31512698602254
C           59.88270071038391       -2.78673237649360        0.64081678887526
C           58.60738258103155       -3.44011123114767        0.71497125029281
C           57.66226258474336       -2.49400330826542        0.48283737182839
C           58.35217358819291       -1.26038424895851        0.25330427459455
N           59.69493668060252       -1.46100780562867        0.35309726309055
N           62.58393293376900       -1.50060688203707        0.34247095685202
C           61.21958041240933        4.71150470073229       -1.17251097252849
C           61.78836991642202        5.64699475002027       -0.31007253987674
C           61.80861363666016        6.99693617641556       -0.64561941675771
C           62.43573457633055        7.99895431164262        0.28593614101741
C           61.26194152621306        7.40629441207805       -1.85765831475913
C           60.69225255660024        6.48361254836834       -2.73073976070427
C           60.12381450194516        6.93771611655995       -4.04813144657875
C           60.67182104345138        5.13793716606917       -2.38181223735919
H           56.65416856148210        2.56800466768524       -0.51893066131634
H           58.56824440695869        4.40008639618926       -0.94371601223182
H           63.85469569564979        4.25954375409814       -1.23089583045409
H           65.72124800786854        2.39066479684168       -0.75731820225849
H           65.65518396527889       -2.63189681551331        0.85669744584460
H           63.74092663021568       -4.46380645481537        1.28781895955153
H           60.09254801340924       -4.55147742346821        3.04810664913779
H           59.56655076012887       -8.11714009550684        3.95458364735160
H           60.64029549699179       -7.00378037937088        4.81040487468348
H           59.04791178495170       -6.45201710693327        4.28084466913939
H           61.05045744629046       -8.61573052021457        2.09215467889630
H           62.47991842822875       -7.72855948994796       -1.25889623604775
H           61.56999150664551       -9.00960588691715       -0.43709394856462
H           63.17710168459300       -8.55997977328789        0.13923356760255
H           62.09644553236310       -5.47070708637748       -0.62111051133095
H           58.45823295200112       -4.48999202435227        0.90881090547978
H           56.59119790327296       -2.61478224669185        0.46410686198966
H           62.20089387184655        5.31719887294608        0.63720818733391
H           61.99667253521146        8.98713471184556        0.14759814674331
H           63.50727813743920        8.07142976673498        0.08576253771518
H           62.30557255032159        7.69658464929058        1.32532879498115
H           61.27660544538865        8.45799083197326       -2.12493082606253
H           59.65550705227672        7.91759671764297       -3.95059257918570
H           59.38424689130572        6.22787157253853       -4.41872910132231
H           60.92235241009561        7.01661276072046       -4.78942753901047
H           60.24036212567906        4.40801275364666       -3.05804379737703
Cu          72.06763663966574       -0.10000242734272        0.03142259811799
C           68.63049385139800       -0.12301623046537        0.06517790224342
C           69.27378931217575        1.10995557152702        0.27226917386680
C           68.59411590716569        2.33632075045892        0.56226568380825
C           69.54587697609600        3.29429528931246        0.69999449756565
C           70.81500969408765        2.65832274808510        0.49149146451444
N           70.61702824857473        1.32674597317572        0.23872898971017
C           72.05089300979211        3.30357523810871        0.56394818992865
C           73.29433388337984        2.68008949215301        0.44507007988457
C           74.55838968508603        3.35948026040366        0.45517782951974
C           75.51946904299871        2.41348037669298        0.30062213026367
N           73.50418572352164        1.33737225061917        0.27753932310598
C           74.84967830665909        1.15275408145437        0.18643213072190
C           75.50206756931929       -0.07522471356824       -0.01239490441381
C           74.86224397039021       -1.31191254769620       -0.19619226552283
C           75.54685825045148       -2.56257771626629       -0.33057557268349
C           74.59559809388294       -3.52243261640447       -0.45821663364488
C           73.32231026143343       -2.86175172584968       -0.41195795651126
C           72.08535176376371       -3.50429806191274       -0.49436772585921
C           72.09286812356555       -4.97373191017591       -0.70787475180272
C           71.54696986301444       -5.82410549778680        0.25134914002994
C           71.55563373472263       -7.20284766686092        0.06151983253598
C           70.98590677593998       -8.11261514564466        1.11644155889853
C           72.11222709932788       -7.72691160039370       -1.09990411077264
C           72.65768517397494       -6.88951364802177       -2.07043998588544
C           73.25871841907474       -7.47781963997475       -3.31853818704851
C           72.64779389707464       -5.51493907213815       -1.86784753373743
C           70.84201163788553       -2.87778724386840       -0.39014875911017
C           69.57707385610364       -3.53281755798566       -0.56354403838821
C           68.61548423372196       -2.58688108315929       -0.41129803183558
C           69.28469683304226       -1.34921081869529       -0.14585716206883
N           70.63121312795752       -1.54787232508709       -0.13970297665763
N           73.51733601012701       -1.51605019013073       -0.25029531487218
C           72.04067068740056        4.77256670960464        0.77978481299845
C           72.61589065950355        5.32214786088235        1.92475195807685
C           72.60335500641615        6.69728907504395        2.13073730176077
C           73.23498406669913        7.28811445380124        3.36240222647966
C           72.01717099042833        7.52486205657024        1.17724342689243
C           71.44062288347325        6.99164819117968        0.02856533660343
C           70.82805613132872        7.89571419471238       -1.00702040817805
C           71.45333451728358        5.61422479443585       -0.16363058501789
H           67.52593594301142        2.44089247250283        0.66316833333524
H           69.40578682065309        4.33584582482600        0.94005660304467
H           74.68929590993589        4.42516177430877        0.55155230747321
H           76.58790506307248        2.55074111368492        0.25211395964745
H           76.61825640704873       -2.68376865251418       -0.31384428496458
H           74.73945390689313       -4.58601308290730       -0.55921383775919
H           71.12615338823839       -5.40471579954162        1.15874330102264
H           70.71666372560537       -9.08030017783606        0.69300865107259
H           71.72545566110477       -8.27779422939471        1.90329214770605
H           70.10101198474194       -7.66820681069540        1.57313896468452
H           72.12041076076207       -8.80099624026120       -1.25492645502290
H           73.50566563404941       -6.69800349991537       -4.03872340532096
H           72.56364421206665       -8.17826512472005       -3.78405835715711
H           74.17213429840452       -8.02360829974387       -3.07311791696478
H           73.05707254422212       -4.85118341842137       -2.62159666778905
H           69.44592549370940       -4.57820363348841       -0.79178757693655
H           67.54652170470982       -2.70682585015358       -0.48403701938771
H           73.05778221910934        4.66593853107788        2.66663148121856
H           72.68875202420048        8.17241111535028        3.69191141709609
H           74.26323708039416        7.58649829978432        3.14530522063209
H           73.25601234245060        6.56236990201478        4.17550597643537
H           72.00650945916279        8.59869331597742        1.33376490955222
H           70.43900180705701        8.80496232527290       -0.54824364534658
H           70.01783204108500        7.39042255140954       -1.53314916440212
H           71.58345241117254        8.18248369706085       -1.74231617514233
H           71.01597521965283        5.18728943866906       -1.05958564122333
