118
 energy: -205.991965292165 gnorm: 0.000307813931 xtb: 6.5.1 (b24c23e)
Zn          18.15914034470214        0.03786598541375       -0.00439716627092
C           14.75090287687671        0.05538953591060        0.13368568992548
C           15.38420780131672        1.27826651887830        0.31906790776351
C           14.71379269409970        2.53087430338709        0.52996061638763
C           15.67531871449859        3.47693157223692        0.67088033089090
C           16.94652653041701        2.81104162074863        0.55817023213142
N           16.73422761538908        1.48247921939693        0.33423700145257
C           18.19978281572994        3.42972818327081        0.64235489136140
C           18.21764427661729        4.88408046840991        0.93246665407452
C           17.67715495883060        5.37402357340951        2.12397447579709
C           17.69567042355012        6.72867986363760        2.40283479114356
C           18.25366987274773        7.62524111652112        1.48647028271853
C           18.27356346529413        9.01989953797192        1.77017337531926
N           18.29012728200042       10.14712103462313        2.00136858968864
C           18.79245734291692        7.14109076729577        0.29062679695785
C           18.77532821514960        5.78431794337401        0.02137945846400
C           19.43735336066801        2.79424965310729        0.48595058362194
C           20.71881446110470        3.42546194822013        0.64101973560104
C           21.66178951851890        2.47225362381587        0.43005524224416
N           19.62671306339715        1.46995224711412        0.19638651001142
C           20.96892447145940        1.24915591919896        0.14959068953309
C           21.59490262589237        0.01630513656947       -0.11899483972704
C           20.93608724761093       -1.20577431198759       -0.35663665469538
C           21.59280574574834       -2.43527590270240       -0.69046823117312
C           20.62557917267412       -3.37535185494440       -0.84303964810669
C           19.36587867754141       -2.73027718188552       -0.59475885642401
N           19.59103197914451       -1.40948705572245       -0.31483750146758
C           18.11313792909265       -3.35240374840706       -0.65648405986724
C           18.09279729277335       -4.80700207595242       -0.94440441388376
C           17.44865366638996       -5.29430633093805       -2.08440461585783
C           17.42901300757321       -6.64987755428944       -2.35881544949668
C           18.05302156583623       -7.55004107115016       -1.48976908952896
C           18.03337026718762       -8.94559196237217       -1.76893075725927
N           18.01862002297217      -10.07341563300552       -1.99729046376570
C           18.69647955207263       -7.06851431121907       -0.34568247384448
C           18.71615942120215       -5.71100702110806       -0.08066698192538
C           16.87692349083707       -2.72114335674718       -0.47171717891289
C           15.59409140145859       -3.37414527928523       -0.48027578482587
C           14.65691161061894       -2.41890809967171       -0.25982434138973
C           15.35483457101981       -1.17335416534940       -0.10364375843094
N           16.69695978723185       -1.39087893300110       -0.23005819539552
H           13.66627084978034        0.06057248616066        0.17897200682128
H           13.64306188134826        2.65943910407647        0.55613856894772
H           15.54016863626825        4.53559042560334        0.82460079886099
H           17.25515914163191        4.68079597203924        2.84294577270583
H           17.28021863509791        7.09988978685552        3.33243380358512
H           19.22195859296137        7.83349022562502       -0.42396457887353
H           19.18343446041171        5.41420996924282       -0.91243555252501
H           20.87627821113947        4.46122793985626        0.89537040745915
H           22.73371101489496        2.58022806954043        0.47186314459334
H           22.65781788968088       -2.55537622498109       -0.80805454713991
H           20.75240407671164       -4.41084377269250       -1.11498422271851
H           16.97487604367777       -4.59859952824840       -2.76786748297150
H           16.93219193314573       -7.01911864866142       -3.24843093817554
H           19.17777232135696       -7.76354005826490        0.33245590085584
H           19.20517713700582       -5.34299715290472        0.81432383197647
H           15.43594149780207       -4.43109858014412       -0.62336856551019
H           13.58640744359265       -2.53683149400181       -0.19827025975278
Zn          29.06807716772811       -0.03804043242948       -0.00224061343654
C           32.47640494900954       -0.04779053790454        0.13631551871426
C           31.84320412117238       -1.25880743695315        0.38799533616619
C           32.51373317136392       -2.49794972931221        0.66704733740614
C           31.55230438008488       -3.43512705680863        0.85872707433959
C           30.28103709948199       -2.77652327370956        0.70971409217134
N           30.49320788640634       -1.46204876034193        0.41407460492151
C           29.02783892134646       -3.38980675359326        0.82764267516569
C           29.01027932963025       -4.82634516941565        1.19594972998825
C           29.55152114732762       -5.25143578335523        2.41178678206963
C           29.53335995850973       -6.58914535633957        2.76310796036093
C           28.97485943318086       -7.53373833020200        1.89667726725587
C           28.95453196526559       -8.91108179378896        2.25510685266207
N           28.93616503456210      -10.02434993261728        2.54614382000183
C           28.43551888441995       -7.11469325327098        0.67673273957373
C           28.45232358714428       -5.77437744722428        0.33489083665224
C           27.79018766206189       -2.76382214468002        0.63720633967958
C           26.50878236470322       -3.38574314162946        0.82649499334972
C           25.56571166306738       -2.44550380300481        0.56401300836992
N           27.60069121593731       -1.45721502296980        0.27614605510676
C           26.25845571156235       -1.23939474744806        0.21744655657353
C           25.63235997362528       -0.02299864486318       -0.11769650794850
C           26.29102270703902        1.18450200520134       -0.42122905205420
C           25.63416836082062        2.39414581944718       -0.82090313859170
C           26.60129238562978        3.32471645977038       -1.02405081781912
C           27.86106784003740        2.69406048378862       -0.74153147813208
N           27.63605654038980        1.39028963809438       -0.39063103886825
C           29.11378245635241        3.31187857987219       -0.83713947104432
C           29.13455464338763        4.74872691297602       -1.20355042884182
C           29.77842973809184        5.17295114037080       -2.36867159679485
C           29.79937467746642        6.51165223402858       -2.71602296672696
C           29.17697853545351        7.45818276662023       -1.89650050586226
C           29.19772128333869        8.83668417004703       -2.25033290874892
N           29.21286086864963        9.95111380578070       -2.53717341644011
C           28.53375093685362        7.03994108157843       -0.72767288298789
C           28.51270883680339        5.69875665489028       -0.38961684991034
C           30.35003941336294        2.69155667263809       -0.61865771248664
C           31.63281831777716        3.34321871639572       -0.66296997606328
C           32.57012377645017        2.40141956681862       -0.39122840725926
C           31.87232847195772        1.16615577170904       -0.16745645955982
N           30.53015688072869        1.37639180861352       -0.30521012642359
H           33.56103900146807       -0.05041922759349        0.18166033263585
H           33.58445741139009       -2.62460914491906        0.70111179343983
H           31.68760256876834       -4.48381573469595        1.06989803535642
H           29.97376346111781       -4.52052094437035        3.09226635166149
H           29.94946945986439       -6.90978195277936        3.71105371212174
H           28.00587373749066       -7.84459547157589        0.00058140362024
H           28.04374182060052       -5.45506052786304       -0.61728108266695
H           26.35143100867254       -4.40614419060464        1.13686230526322
H           24.49379852953370       -2.55117116652252        0.61162360106377
H           24.56913508198882        2.50761830593201       -0.94472873500016
H           26.47441003589691        4.34407830485248       -1.35129844333877
H           30.25108675117790        4.44074689327913       -3.01370044224666
H           30.29611008565261        6.83168213705767       -3.62455043084538
H           28.05383948812501        7.77120418733334       -0.08774723689351
H           28.02392474754999        5.38026450213118        0.52429163244353
H           31.79087140049431        4.39085713234375       -0.86322938541003
H           33.64063147884642        2.52258144441920       -0.33646020350553
C           23.00529138017886        0.00244010646247       -0.14046658738109
C           24.22196834627365       -0.01045383126314       -0.13990132583858
