130
 energy: -248.257158324976 gnorm: 0.000846067229 xtb: 6.5.1 (b24c23e)
Ni          14.47359041272151       -0.00232959315546        0.01876905632849
C           11.08458832344606       -0.00740023490601        0.19775714875816
C           11.73139182745006        1.21072744864456        0.20078089474657
C           11.04982781680223        2.46852633814469        0.24425283906647
C           12.00439718044206        3.42468735603855        0.32063222660093
C           13.26867472183947        2.74823132666499        0.33847346169346
N           13.09159765026328        1.39198271678079        0.22642939149802
C           14.48926367282491        3.38975532981958        0.50215992491204
C           14.49952123226320        4.85758645658995        0.71437424335002
C           13.87782040896064        5.41414441735799        1.82828260327967
C           13.89218209741953        6.79374707580849        2.03000139698103
C           13.21485655472183        7.32684151257634        3.23899897177605
O           13.28511312080067        8.66127745915732        3.34820912827877
O           12.64989240892601        6.64701816909275        4.05703290847427
C           14.52898029988780        7.62809675426976        1.11148323165593
C           15.14685423045917        7.07600514228822        0.00032368728896
C           15.13548125819594        5.70251834760978       -0.19810520513789
C           15.70155726142489        2.71309347234009        0.48750671270602
C           16.96610134406099        3.34181252383438        0.72184568462696
C           17.91387802440729        2.38896049512234        0.55226581782118
N           15.87225726058309        1.37477978841744        0.21495485438304
C           17.22636889953223        1.18136097694927        0.22241156279351
C           17.88465959944433       -0.00427396187889       -0.11597686218714
C           17.20164888891883       -1.18640817257011       -0.41424908365752
C           17.85939770935894       -2.39114089028962       -0.80867898252851
C           16.89882793966145       -3.34001951341897       -0.91963676511194
C           15.65732899601222       -2.71280844213324       -0.58063362780619
N           15.85132790088938       -1.37750145868038       -0.30785457056358
C           14.44836310080848       -3.38992027617059       -0.49472949416568
C           14.43651990753381       -4.85698942050167       -0.71474487727767
C           15.14621047928068       -5.70609100102723        0.13691965776198
C           15.13023201941892       -7.07988042011748       -0.06101766913922
C           14.41023187130322       -7.62174511811113       -1.11251769323878
C           13.69956669263566       -6.78290069846267       -1.97238491608372
C           12.94283661809127       -7.40214698119113       -3.08953474154962
O           12.29828933680660       -6.51328585673056       -3.85922340237750
O           12.89609150024866       -8.58634353989160       -3.30391525973549
C           13.71184672732970       -5.40414201879958       -1.77125294500265
C           13.24873682705509       -2.75299913049172       -0.20491711551039
C           11.99551854408223       -3.43423296764265       -0.05835928818297
C           11.05283454937162       -2.48281426729333        0.13601556043960
C           11.73142683993455       -1.22292053780070        0.11761809643355
N           13.08110491476730       -1.39871378686269       -0.05985010452459
H           10.00261318617188       -0.00942531573924        0.25903808888084
H            9.97801253999152        2.58368216062487        0.21821879389471
H           11.87758337007953        4.49428101558738        0.36094298822777
H           13.38888751493487        4.77955133497117        2.55933111857251
H           12.82249980997935        8.92845837834000        4.15911739340704
H           14.53801779019849        8.69977839607076        1.26914915128486
H           15.64128736935727        7.71892510392577       -0.71907373310185
H           15.61178642805120        5.27777714425430       -1.07468494927415
H           17.10075804987580        4.37722495253415        0.98885245144382
H           18.98451283733287        2.48035264902209        0.63829048513873
H           18.92045045257156       -2.48275322856330       -0.97583349116740
H           17.00993310524974       -4.37248768651541       -1.20821387739588
H           15.70104774065000       -5.28435080014537        0.96752388313986
H           15.68150986690854       -7.72734122999890        0.61131218350323
H           14.38752682674398       -8.69240810325268       -1.28150220376309
H           11.83264055231466       -6.99459936271854       -4.56232972160137
H           13.16787553286835       -4.75373728878183       -2.44594802675413
H           11.86771497466250       -4.50380683862471       -0.09708140322991
H            9.99091993819639       -2.60272869662305        0.28008424517120
Ni          30.46936498978916       -0.00420941515424        0.01641149048442
C           33.85820961355680       -0.05801466050673        0.19026319515208
C           33.21163475001030       -1.21048249482739       -0.20465963543658
C           33.89338948424920       -2.41364537590355       -0.57356556287130
C           32.93894908563147       -3.34249640751950       -0.81351546885859
C           31.67454600357686       -2.70887363936446       -0.57664302013295
N           31.85144783633482       -1.39022286020919       -0.24022195497208
C           30.45393378161677       -3.36856776126657       -0.63228239879901
C           30.44368625208963       -4.82536141217837       -0.91032552642442
C           31.06456837915169       -5.71470566196170       -0.03817917845011
C           31.04975311263148       -7.08475941937580       -0.29687988305012
C           31.72600105452948       -7.98291800724016        0.67296711322649
O           31.65630033923868       -9.28002371097467        0.34092989761670
O           32.28986082135423       -7.60698382465367        1.66859008128913
C           30.41333254922846       -7.57412222930380       -1.43741357578712
C           29.79639899375672       -6.68989353088614       -2.30849715671720
C           29.80824504701773       -5.32668233319213       -2.04869061268130
C           29.24153667514424       -2.72409533307978       -0.42605548684418
C           27.97694604032210       -3.39482195813288       -0.41063213626510
C           27.02918163622548       -2.43891260417995       -0.25921721128706
N           29.07081491698852       -1.37018949504352       -0.24631326968154
C           27.71668420343583       -1.18983105588629       -0.17605986277358
C           27.05820523387167        0.04117462127063       -0.10865810061227
C           27.74107403613845        1.25608789664717       -0.00548793463117
C           27.08340535947203        2.52363972711262        0.01368932653890
C           28.04403509770599        3.45690915839339        0.21764787967786
C           29.28539536167484        2.75336039235770        0.33448639903610
N           29.09136523036092        1.40204610328530        0.15744947497102
C           30.49417963159170        3.36523822504033        0.63753258051827
C           30.50605950662137        4.82384389757055        0.90812833064043
C           29.79648993520103        5.34860534781095        1.99028777408042
C           29.81288632249425        6.71174569002445        2.25164242126777
C           30.53303405584554        7.56696436241512        1.43453390534133
C           31.24335347075774        7.05458644636136        0.34780400908510
C           32.00011081601532        8.00439027614504       -0.50619856587914
O           32.64299595287149        7.41549351075390       -1.52492743346486
O           32.04786391150151        9.19358085420250       -0.32182957428521
C           31.23078264351942        5.68568287112067        0.08793372833536
C           31.69359754990184        2.66841413781379        0.70503467557292
C           32.94652936987216        3.26449420676218        1.06689915051522
C           33.88936254946367        2.30183191239406        0.94046122745187
C           33.21111406380977        1.11697086034079        0.51121775225865
N           31.86148815801333        1.34099960840252        0.39999128406868
H           34.94016810263781       -0.07597303300112        0.24917720095850
H           34.96523283181482       -2.51395374046495       -0.63534693555401
H           33.06594239693938       -4.36677696368439       -1.12410941283234
H           31.55310239511273       -5.35309586340993        0.86002402384802
H           32.11821408182820       -9.79698989766819        1.02090072838675
H           30.40379657079724       -8.63872256026006       -1.63736962492277
H           29.30227876823468       -7.06319041687041       -3.19834940359034
H           29.33266622710502       -4.63936863080075       -2.73940597966309
H           27.84221489199675       -4.46058157400347       -0.49724480173896
H           25.95852376849681       -2.55336399944908       -0.20812206491462
H           26.02241464105050        2.66479651070821       -0.11490341714208
H           27.93311710346160        4.52712164110316        0.28060888397286
H           29.24143269481180        4.67897553248233        2.63768258146132
H           29.26183881394187        7.10442640174237        3.09857203779108
H           30.55613215660378        8.63412191174302        1.62435753990352
H           33.10856928064027        8.09984919617421       -2.03262111640550
H           31.77465702408949        5.29094693976014       -0.76208141119757
H           33.07400484876597        4.28808231490179        1.37969732104317
H           34.95116473744971        2.36821568862342        1.11642862559559
C           23.08519265260764        0.04150318821399       -0.18006140323126
C           21.85757906374899        0.02270994543666       -0.18169579032917
C           20.51249071046241        0.00666015435930       -0.17521543521108
C           19.28937072586413       -0.00328810725708       -0.15447880781161
C           24.43030186052340        0.05233481940735       -0.16642074288051
C           25.65348297177562        0.05280122299800       -0.14485757699563
