128
 energy: -226.764642104968 gnorm: 0.000921614357 xtb: 6.5.1 (b24c23e)
Zn          13.26756309743616        0.01904972139756       -0.03447636745395
C            9.85906234731837        0.07263421830637       -0.09513995035604
C           10.49376910364270        1.29990464639837        0.05201184887844
C            9.82399273944410        2.55932512282020        0.21948385024464
C           10.78611467184337        3.50549994515265        0.35546793183532
C           12.05686553339288        2.83617493832292        0.26061459529351
N           11.84406543810954        1.50079543804221        0.08352615044591
C           13.31109546554505        3.45016171469109        0.36929280848539
C           13.33104712160593        4.91970071499756        0.56406796139981
C           13.88705495475465        5.47000436806673        1.72335596795717
C           13.90082613168785        6.83854710237070        1.91018573885364
C           13.36451577791860        7.69073422287368        0.93905770892058
C           13.39364044960674        9.14744226902305        1.15963780976167
O           13.85702342346295        9.66745534214253        2.14228089506906
C           12.81200755689859        7.14294462985728       -0.22135483651360
C           12.79324970401938        5.77178510088776       -0.40468237492506
C           14.54790757255343        2.79718146090909        0.31627962269184
C           15.83025154222029        3.44386521865911        0.36686540469847
C           16.77226128893392        2.47247471950433        0.26144004889870
N           14.73546794174491        1.44908636552360        0.16886605892879
C           16.07649526841683        1.22504396061368        0.13934162807004
C           16.70300213292199       -0.03036979095449        0.00140200342304
C           16.04414553311061       -1.26825354789361       -0.14067401439732
C           16.70656360566622       -2.52900201793166       -0.30242297200384
C           15.73898115020079       -3.47422210736926       -0.41579089759639
C           14.47403373350764       -2.79945608744677       -0.31649110320807
N           14.69742330050942       -1.45801145226737       -0.15819536994307
C           13.21970147295196       -3.41421122089633       -0.40620231331877
C           13.19621971178385       -4.88882038266160       -0.55654248237290
C           12.62504986783400       -5.47453428273491       -1.69025786628141
C           12.59767514852732       -6.85036531158572       -1.83144495509858
C           13.13701062433421       -7.67081801123716       -0.83743518187179
C           13.11427116161176       -9.13903719000460       -0.96134499181119
O           13.56180886778685       -9.88891239098237       -0.13134883669831
C           13.70796882692593       -7.08574754880879        0.29789793878734
C           13.73975379856462       -5.71152897280055        0.43518173877997
C           11.98247658823288       -2.75836746375346       -0.36472621620790
C           10.69416158310660       -3.39885249247813       -0.40902833067312
C            9.75768312365732       -2.42126247879909       -0.32663966827364
C           10.46081903330010       -1.17363063282055       -0.21958339056574
N           11.80535625740465       -1.41177297833863       -0.24137202722440
H            8.77355569758726        0.08750109242848       -0.09878049748331
H            8.75332474610259        2.68949620653209        0.23814361872588
H           10.65142518938980        4.56273586031690        0.51881355588401
H           14.29259496091692        4.81160575695716        2.48333857483229
H           14.32470748431449        7.27210743222510        2.80967846082089
H           12.94356930055658        9.74221620174074        0.33577879874209
H           12.39782368252639        7.79704380007511       -0.98179657169059
H           12.37542327834770        5.35086614135501       -1.31237415155771
H           15.98804540031677        4.50657785048746        0.45606519626350
H           17.84476574863124        2.58378805311917        0.25982306162809
H           17.77592280201437       -2.66503728194971       -0.33081378444172
H           15.86896682601295       -4.53359370560508       -0.56753400071577
H           12.21674029718458       -4.84045469921385       -2.46929627704959
H           12.15674859355031       -7.29562939858090       -2.71752741568861
H           12.64161088207999       -9.51007020884110       -1.89593421586291
H           14.12127381809994       -7.73033246734022        1.06625434298806
H           14.17060364010570       -5.26203491694287        1.32276698269013
H           10.53083936445196       -4.46232027609412       -0.47937770289423
H            8.68396340147155       -2.52483763106842       -0.32810719127321
Zn          31.88264775967960       -0.01727432133688       -0.03715719338757
C           35.29124592052039       -0.05951719815671       -0.10494372482273
C           34.65746316389734       -1.29567715066435       -0.13475675763528
C           35.32802519819267       -2.56569262028082       -0.14925858939714
C           34.36648710183785       -3.52218103438539       -0.14939991011333
C           33.09531314604525       -2.84693998806644       -0.14707680352393
N           33.30729486733119       -1.49984928596243       -0.13176689316154
C           31.84140197064965       -3.47075081504129       -0.12646500614303
C           31.82217069574009       -4.95307706323086       -0.14258498744911
C           31.26751321897314       -5.66276576973667        0.92727415352329
C           31.25454556572642       -7.04398172483088        0.91783833696373
C           31.79048394600661       -7.74931749480280       -0.16493645078201
C           31.76346747195280       -9.22267454756597       -0.15293354382834
O           31.30066884853724       -9.87712402132915        0.74632861384664
C           32.34134878763784       -7.04192122741961       -1.23639853706290
C           32.35927907879353       -5.65860383955273       -1.22311202686104
C           30.60423835959882       -2.81754257891958       -0.08569350563593
C           29.32233635633164       -3.46571982284842       -0.12751535749385
C           28.37963657005802       -2.48987298466065       -0.09368228890258
N           30.41573385974035       -1.46234629470251       -0.03974349943992
C           29.07450040704256       -1.23729054271403       -0.03701526774699
C           28.44718695328058        0.02454000900102        0.00491398178884
C           29.10527250846434        1.27050848756028        0.04018362172877
C           28.44198914028284        2.54103530134455        0.05858385196659
C           29.40892787171963        3.49339136913781        0.08124404907592
C           30.67429639851533        2.81214405707341        0.08457200816975
N           30.45180019930634        1.46167017643181        0.05054645087612
C           31.92827991095132        3.43402085046950        0.08425456907776
C           31.95105536390131        4.91499671983591        0.14544109347355
C           32.52311833614676        5.65633310668873       -0.89272272683147
C           32.55023803097863        7.03823416731422       -0.83645984379776
C           32.00968194436319        7.70861859676222        0.26374241004628
C           32.03225992404776        9.17950447321858        0.35036706732643
O           31.58373725679681        9.80340723000491        1.27831533423028
C           31.43763863081129        6.96770078057075        1.30349344645724
C           31.40611890708315        5.58793914978603        1.24360142314834
C           33.16587149670671        2.77954863519148        0.03266774522601
C           34.45375376316536        3.42057415178715        0.08103086512003
C           35.39085685319903        2.44182842090985        0.02305324737896
C           34.68853293748453        1.19128680927806       -0.04974834887128
N           33.34383525126360        1.42925367380344       -0.03763669512559
H           36.37676176305693       -0.07279584872701       -0.11077054053904
H           36.39878487962137       -2.69652916314770       -0.14991682865918
H           34.50186710541343       -4.59182062176053       -0.13891621926939
H           30.86246925100779       -5.11921461746410        1.77345824920282
H           30.83192327476802       -7.60116233024228        1.74708254114481
H           32.21057189312317       -9.69398087641582       -1.05401560117123
H           32.75493711551267       -7.58114536510369       -2.08250166538701
H           32.77598678020586       -5.11278740237265       -2.06221367840632
H           29.16536060320400       -4.53040629942451       -0.19039425638626
H           27.30719772083813       -2.60049021696963       -0.11110706890881
H           27.37255203759151        2.67903881545482        0.04907884232642
H           29.27825958805118        4.56350294297267        0.08128873841887
H           32.93235509923806        5.13972715734539       -1.75371524331117
H           32.99192061879604        7.60525234705758       -1.64961946566676
H           32.50587768713048        9.67996343393401       -0.52124879390593
H           31.02340642789117        7.49622833336253        2.15541429135874
H           30.97446012002037        5.01652718029031        2.05764735143091
H           34.61637380430066        4.48326117282166        0.16370944963182
H           36.46450039320010        2.54524707557915        0.03683329384207
C           18.10812871940470       -0.04354793316425       -0.00198369469552
C           19.33289527717477       -0.03786908281070       -0.00396662673413
C           20.67546534973098       -0.02739828326944       -0.00266500299146
C           21.90614361981255       -0.00808155640986       -0.00176772461192
C           23.24392295415960        0.00880210644162        0.00144277604543
C           24.47459325940220        0.02641056145133        0.00186964692171
C           25.81722143875248        0.03457204233331        0.00308995126492
C           27.04207747977203        0.03817091984109        0.00301461903456
