128
 energy: -253.160425860378 gnorm: 0.000454099001 xtb: 6.5.1 (b24c23e)
Co          16.01605935925174        0.07909561758166        0.04622695918324
C           12.65101769408276        0.10933183195065        0.32966825944478
C           13.29435489076697        1.29310380676808        0.03951584137987
C           12.61343939937137        2.53454115410565       -0.16862375603905
C           13.56853250237267        3.48716172452464       -0.27616399869720
C           14.83266635662615        2.82609551679030       -0.13064228476808
N           14.65392599375543        1.47411123368591        0.02153868616193
C           16.04053937323349        3.49302827840947        0.02155692476544
C           16.04701930950103        4.97729409795320        0.00860606215389
C           15.72224544112156        5.67044557050063       -1.15663544520460
C           15.73093631223356        7.06074657919531       -1.16387179921827
O           15.42496449358024        7.74650180446024       -2.29192715038281
C           16.05677800233285        7.76032102598228       -0.00073754202938
O           16.05300031419091        9.13014088968355       -0.03697523120958
C           16.37596291363666        7.06639754080208        1.16356952327970
O           16.68015447830915        7.82131384605312        2.26557912120896
C           16.37624195421503        5.67695067526013        1.17208659168078
C           17.23581359361269        2.81743658019972        0.21266544259698
C           18.50086774104452        3.46657917772601        0.38249983008751
C           19.44396374899804        2.49477750261945        0.37469953870319
N           17.40312518413654        1.45292951421010        0.13185707063717
C           18.75452428820383        1.25768882128415        0.18741507274291
C           19.41227071823135        0.04637090308698       -0.03757323566073
C           18.71775081288728       -1.14565226462355       -0.25793063795639
C           19.36483647875731       -2.38441452982507       -0.55257051874522
C           18.39802147454420       -3.33285013590107       -0.56798844364737
C           17.16270486582112       -2.66900996050999       -0.27798682254610
N           17.36878732467254       -1.31561979560805       -0.12811635829216
C           15.97667341753334       -3.33379850421144       -0.00835170553205
C           15.95440266009656       -4.81668569795431       -0.07472317291942
C           15.76076069952251       -5.56777104459155        1.08373884685952
C           15.74257805677607       -6.95638603951503        1.01709188776193
O           15.56282353614455       -7.69824422282722        2.13669010082755
C           15.91023293004499       -7.59557519914734       -0.21236715089048
O           15.88296027401456       -8.96523253439359       -0.24776714856176
C           16.10073163562964       -6.84366468283468       -1.36885337517199
O           16.25424463998383       -7.54152282559860       -2.53768765546716
C           16.12831854934473       -5.45584895226083       -1.30445875194474
C           14.81284380453080       -2.65758995130157        0.33021055832885
C           13.57006893599756       -3.30444386642942        0.63486142565730
C           12.63721031581946       -2.33030085937842        0.74321593115445
C           13.30745684280072       -1.09143813131126        0.48883804624354
N           14.64916224396599       -1.29602863834122        0.28519103146869
H           11.57119545980960        0.12054441561039        0.42031885109054
H           11.54137155391141        2.64319815391051       -0.21128293379618
H           13.44201610564269        4.54797889623632       -0.41882487590678
H           15.47978488121887        5.13720022607848       -2.06669063063835
H           15.48629948041450        8.69640069216624       -2.09765962849933
H           16.29962123648210        9.45269431743038        0.84449981949849
H           16.88617442965227        7.25760015179669        3.02277900540286
H           16.61295335297140        5.14246093113379        2.08452727933823
H           18.64062078157201        4.53134023101772        0.47391075897915
H           20.51391892671517        2.59166182086203        0.46456440213526
H           20.42498244516174       -2.49838420735739       -0.71203875819112
H           18.50376983771163       -4.39235532376173       -0.73522376387669
H           15.64238679815872       -5.08157370720196        2.04335984592773
H           15.58173952512418       -8.63697773832191        1.88727448191819
H           16.01239093012324       -9.24289492417595       -1.16862446740618
H           16.37765418275075       -6.94002519329184       -3.28368577370184
H           16.26634387811490       -4.87525713589050       -2.20896210591192
H           13.43950745440126       -4.36967973464844        0.73447184326279
H           11.58320526677997       -2.42282776664291        0.95163552057153
Co          29.40716025430833       -0.08182668858117        0.01976667236975
C           32.77345743143616       -0.13872074992401        0.27187041651178
C           32.12864901332691       -1.28185063136222       -0.14889009966883
C           32.80811442482978       -2.49036309258385       -0.50388750348867
C           31.85281802136859       -3.42797530372593       -0.70318378747991
C           30.58995179434108       -2.79054947560560       -0.46872534110839
N           30.76914580742157       -1.46328738586087       -0.17017429199705
C           29.38434858195871       -3.47233236228800       -0.37518749555758
C           29.37724622757417       -4.94696037763580       -0.54435583700577
C           29.68803106506012       -5.51441212979608       -1.77926705084916
C           29.67497124480334       -6.89629632352968       -1.93229727251677
O           29.96652739982269       -7.46040012665907       -3.12945497287989
C           29.35892600978664       -7.71354872063706       -0.84572007881706
O           29.35707733844716       -9.07195676949184       -1.02591334028495
C           29.05433795851794       -7.14520955858052        0.38848691298216
O           28.75897747729147       -8.01106107249350        1.40822552624886
C           29.05837622781676       -5.76437212532533        0.54277355295798
C           28.19027600396547       -2.82254750105120       -0.10365890625939
C           26.92623239848278       -3.48720691301929        0.00199028459047
C           25.98232348732577       -2.52088339712296        0.09780651495586
N           28.02164725084953       -1.45733234695772       -0.03972018772736
C           26.67024683333070       -1.27025799046055        0.03892053053374
C           26.01173058488657       -0.04225975605555       -0.05564720602950
C           26.70562668412607        1.16709860367313       -0.14470810779578
C           26.05841612148552        2.43089276784482       -0.29933087807454
C           27.02394487634682        3.37570677316322       -0.20054572788287
C           28.25884287285888        2.68407188940305        0.01728931944272
N           28.05391804266058        1.32231341991522        0.00899623960384
C           29.44293460613011        3.31307486642179        0.36931631145508
C           29.46404281119048        4.79296847576400        0.48304371262257
C           29.65952540813157        5.39752381911979        1.72404660610029
C           29.67883286663928        6.78387761333162        1.82680639019312
O           29.86098175674023        7.38381498137802        3.02813348761604
C           29.51013396372977        7.56801449491216        0.68447712136553
O           29.53903252991568        8.93176472474134        0.81585052249412
C           29.31748040708077        6.96245824203447       -0.55462247068806
O           29.16333830016146        7.79742881635567       -1.62965981985696
C           29.28901598016746        5.57711953877626       -0.65956428268695
C           30.60743527883687        2.60230572616918        0.62503224222168
C           31.85060711805913        3.20948151128742        1.00152595237797
C           32.78605990644601        2.23196019294409        0.98281149869538
C           32.11664021889134        1.03213526350804        0.58160270235899
N           30.77321219072145        1.25679910704536        0.41334112101430
H           33.85413787902408       -0.15783718799457        0.35018212803974
H           33.87964368165797       -2.59071439483058       -0.57262742963076
H           31.97868179098387       -4.46606900655681       -0.96439167137956
H           29.92205367998110       -4.88908041642077       -2.63104710874827
H           29.90337682251596       -8.42529105624560       -3.03554212401389
H           29.11761081230510       -9.48476289117284       -0.18085844335796
H           28.56226591330612       -7.52953780885499        2.22248656257168
H           28.83236403889826       -5.32804859580055        1.50859198432143
H           26.78755230657595       -4.55583877737299       -0.01792449261919
H           24.91268075391270       -2.62777895257848        0.17968863575397
H           24.99891235411570        2.56146566901760       -0.45016730247197
H           26.91726490379217        4.44728928810084       -0.24563040017679
H           29.77883984125111        4.79814031112414        2.61724600208961
H           29.84312135151507        8.34593001036656        2.89473952245244
H           29.40918855723685        9.31946216814681       -0.06429709033150
H           29.03835287249348        7.29127716658080       -2.44313322784115
H           29.15027246652227        5.11104655709459       -1.62794090275277
H           31.97988994818668        4.25455028592812        1.23130242071175
H           33.84109283382466        2.30092458203454        1.19512577582324
C           22.03762439420734        0.01240327894339       -0.06920443463230
C           20.81533772164881        0.02890090562630       -0.05937642712728
C           23.38623384276834       -0.00650190888803       -0.07272358783541
C           24.60861036712987       -0.02292821634023       -0.07118380657650
