128
 energy: -214.611965375013 gnorm: 0.000440351475 xtb: 6.5.1 (b24c23e)
Zn          12.80860456186417        0.02147952117278       -0.00422929082012
C            9.40157875468709        0.12872194465888        0.08818630575597
C           10.04113206884132        1.24516777252705       -0.43754759149234
C            9.37758553533319        2.40380838504208       -0.96515620655099
C           10.34474882846619        3.26222678860562       -1.37640031121184
C           11.61209086004913        2.64267476044156       -1.09411142129562
N           11.39228083160575        1.41787949886106       -0.53482998800162
C           12.86829993607176        3.19848958352442       -1.37074217796645
C           12.89566809095899        4.56330290292467       -1.95105909369399
C           13.47141372021336        4.79530947202108       -3.20251675057351
C           13.50014964269617        6.06743733483721       -3.74624444398699
C           12.95238794000176        7.14293540572015       -3.04264747459815
N           13.02484217820049        8.42559436960458       -3.55992360585868
C           12.38448584688983        6.92158218884058       -1.78557664834140
C           12.35185399272407        5.64457397052202       -1.25357894471488
C           14.10018014929810        2.57554692254038       -1.14095590275932
C           15.38645739385821        3.17262310354714       -1.37116655485967
C           16.32333012559828        2.25639419830695       -1.01630228594143
N           14.28111682699159        1.31452561932960       -0.63658415610263
C           15.62058968079828        1.09537708137848       -0.55604907106976
C           16.24033346921320       -0.08320496769017       -0.09165574767723
C           15.57517085065411       -1.22347130094652        0.40351129751850
C           16.22857543061021       -2.42426345863021        0.83300142551067
C           15.25667237677949       -3.28186672836816        1.23760102868306
C           13.99890111762031       -2.60817500985920        1.06942980182937
N           14.23046237969179       -1.36151524015668        0.55049043315943
C           12.74433247789457       -3.15244152904101        1.36721844756704
C           12.71505817440217       -4.51331248342226        1.95676582275524
C           13.33654690822544       -4.77389358750729        3.18041709970260
C           13.30640145253929       -6.04047871354700        3.73685617522014
C           12.66214584785765       -7.08460390028249        3.06858968772053
N           12.59497455663658       -8.34376708538022        3.64069001265313
C           12.03503015643200       -6.83199596569031        1.84594238459587
C           12.06211722115516       -5.56011501994789        1.30146216429401
C           11.51231709151074       -2.51873410756576        1.15658928571732
C           10.22613436096979       -3.05553445308475        1.51380363264166
C            9.29362454139072       -2.13870531488166        1.15195773498938
C            9.99822560892335       -1.02584487426221        0.58082267878391
N           11.33916481361651       -1.28397642560853        0.60265736593192
H            8.31677010838710        0.16292461509508        0.11882391250907
H            8.30738606522235        2.53037640377697       -1.01781616835897
H           10.21497699366304        4.22602387715238       -1.84239439914317
H           13.88380826469587        3.96286942751879       -3.76230932452993
H           13.94522761391248        6.23352197737451       -4.72126915704722
H           13.12930536768981        8.47439377053351       -4.56087135594413
H           12.34512301994306        9.07122631848759       -3.19067359871144
H           11.96987149431170        7.75484026816740       -1.22867060701142
H           11.91866420419529        5.48274743152048       -0.27246449484061
H           15.55148169134235        4.17131190645230       -1.74219785522600
H           17.39663685688647        2.35511225505386       -1.05193813340444
H           17.29467042857504       -2.58661500131489        0.81594471117352
H           15.37894844961604       -4.28820312995108        1.60475422622271
H           13.83089940341976       -3.96667483140500        3.70988272346519
H           13.78313680658254       -6.22726828521580        4.69297851415365
H           13.31404479027620       -8.54210346077890        4.31792806128045
H           12.42768258506985       -9.09693919924823        2.99281964285626
H           11.53052788398496       -7.63781190541443        1.32388696143573
H           11.58790753090357       -5.37634040344128        0.34344459314134
H           10.06196473178838       -4.00714529808368        1.99360675978604
H            8.22232816280918       -2.19643005756553        1.26628896765220
Zn          31.41318289887144       -0.01721918226578        0.01578135144801
C           34.82037099916400        0.00255450998740        0.15395405022067
C           34.18178677686762       -1.05264821065399        0.79476545219078
C           34.84637717932151       -2.13185885080486        1.46910238941214
C           33.87999443127628       -2.94949764775268        1.95796940533815
C           32.61209710682041       -2.37294080535064        1.59782393777143
N           32.83080608883196       -1.23009368062735        0.88555739915907
C           31.35637911503760       -2.91120269025398        1.90913919910664
C           31.32986560747510       -4.14876997637497        2.72644283347800
C           30.75428923275251       -5.32033951003404        2.22884637002656
C           30.72550762476572       -6.47603298316141        2.98930721688175
C           31.27297378713120       -6.48309689458918        4.27462211672953
N           31.20011643465637       -7.62241011415057        5.05862809799305
C           31.84087384510505       -5.31277311580198        4.78411250104097
C           31.87362074607043       -4.16418014170848        4.01306860981653
C           30.12391160408094       -2.37606167220796        1.51788633614212
C           28.83820386289786       -2.89802754981268        1.89007289608162
C           27.90044152012125       -2.09650506012566        1.32322720745549
N           29.94175063899752       -1.25935580016853        0.74519825708450
C           28.60206118313771       -1.07164031482447        0.60836732139672
C           27.98125105080539       -0.03383398878343       -0.11714176450897
C           28.64540940275822        1.00929580940053       -0.79436062589417
C           27.99089823873041        2.03112891818060       -1.55647860313198
C           28.96203396604093        2.84293014400582       -2.04806308059776
C           30.22041370886866        2.33054949539738       -1.58111852325730
N           29.99000336100358        1.20861699260575       -0.82927599961418
C           31.47450228606331        2.87984912007255       -1.87133616703423
C           31.50322658928881        4.12354536909423       -2.67933953861249
C           30.88384797039505        5.28787360740515       -2.21877263010870
C           30.91508021826871        6.45203978798596       -2.96611984047311
C           31.55804761344799        6.47196912075953       -4.20627020004167
N           31.62621136100810        7.64558381627980       -4.93859851757684
C           32.18299088553589        5.31290834155423       -4.67290357944444
C           32.15488008249964        4.15573555510978       -3.91455808829093
C           32.70712142269282        2.35444823645499       -1.46101257975515
C           33.99282502934300        2.94918449321508       -1.71261914189433
C           34.92622404075392        2.14150209844314       -1.14918774817368
C           34.22266578934063        1.05047839160406       -0.53616045003501
N           32.88145717356176        1.21068742109707       -0.73794984553690
H           35.90519968978986        0.00988078545988        0.19874990153966
H           35.91669766267275       -2.24475738595451        1.54521619433473
H           34.01061873922266       -3.87013285522876        2.50410519427867
H           30.34197795818669       -5.32746560757408        1.22567932555620
H           30.28048303314108       -7.38068897684029        2.58943423538581
H           31.09531272591383       -8.48397217579689        4.54689245861624
H           31.87965648992436       -7.67112386936061        5.80092457370762
H           32.25524360279241       -5.30842875601445        5.78643119335048
H           32.30676377755350       -3.25679483187872        4.41984617008080
H           28.67419584061868       -3.75875241167829        2.51818987432600
H           26.82723297959615       -2.18091204484977        1.38721927051485
H           26.92463963566161        2.10631469128315       -1.70016868537571
H           28.83890235434187        3.70560960729209       -2.68296406648655
H           30.39082504038990        5.28320804323765       -1.25269777118143
H           30.44038775914209        7.35273891652769       -2.59222632726189
H           30.90156786725694        8.31527595760719       -4.73467611917783
H           31.79747820641753        7.52114982727453       -5.92372910203466
H           32.68674350049100        5.32303332689391       -5.63340765849321
H           32.62704793765378        3.25513311275841       -4.29200568215680
H           34.15609840393496        3.87477532087112       -2.24114756806315
H           35.99748779681825        2.26908248094643       -1.13538334603241
C           17.64419040524346       -0.11726742778898       -0.12120878334282
C           18.86890199329823       -0.12300198755533       -0.14809777504199
C           20.21112049037922       -0.12457609046598       -0.16836184362675
C           21.44203601748525       -0.11330440846871       -0.18582877408817
C           22.77958799063942       -0.09553634634915       -0.19551557253691
C           24.01047137067659       -0.07604838067502       -0.19664578482291
C           25.35264962063366       -0.05759310318748       -0.18272579306955
C           26.57737398262536       -0.03964678689639       -0.16116586133246
