126
 energy: -229.301042576670 gnorm: 0.000587361172 xtb: 6.5.1 (b24c23e)
Ni          14.56718608479035        0.03280403118417       -0.06288570184156
C           11.17494805790116        0.08668311569586       -0.16622119308876
C           11.83969566459130        1.29377704948506       -0.11363689400527
C           11.17202974958755        2.55919168098692       -0.08016751409008
C           12.13097266482497        3.49924743847197        0.08626460365247
C           13.38601052146627        2.80766861018432        0.13864213388935
N           13.19785625605867        1.45524313990798        0.00183246056320
C           14.60328156733262        3.43087010275874        0.38036373339827
C           14.62125081217278        4.89805360119005        0.59229454471444
C           14.99255408059787        5.42599117291382        1.83196432846760
C           15.00789990262364        6.79324358998530        2.03040005318965
C           14.65823681986571        7.66267334736020        0.99201989481833
C           14.68607541458080        9.11801162276243        1.22766800882638
O           14.99149417939663        9.61984110574961        2.27881546715800
C           14.29035410765113        7.13537392624305       -0.24801050137697
C           14.26974005942459        5.76579792496619       -0.44454245566511
C           15.80769541515839        2.74184898551372        0.42320855069780
C           17.07671799400952        3.37720655435194        0.61241020191121
C           18.02003077304269        2.41592393722294        0.47156840400497
N           15.97323540014009        1.39651054206646        0.18279000164273
C           17.32637475051945        1.19805280711410        0.19643571727956
C           17.98125948266529       -0.00703160599738       -0.07220160115179
C           17.29641718568799       -1.20195202746142       -0.30719328419583
C           17.95737968250186       -2.43825521281081       -0.58005554557176
C           16.99256237328656       -3.38572548429509       -0.65753427146364
C           15.74408720512589       -2.72379341040292       -0.42778689990288
N           15.94051289674361       -1.37394520507173       -0.24550337315608
C           14.52049222134067       -3.37968015459047       -0.38756205998514
C           14.50413354564360       -4.85510510435267       -0.51789254214206
C           13.85246200380860       -5.46139824400717       -1.59532048000317
C           13.83940398431850       -6.83914854669654       -1.72088857517922
C           14.47389272007026       -7.63858035039693       -0.76712876149398
C           14.47193538025753       -9.10892050577860       -0.87695517724595
O           15.00280235971704       -9.84020037717157       -0.08094375328126
C           15.12425560450324       -7.03196929209233        0.31252986988434
C           15.14200085280813       -5.65586809186543        0.43417885774441
C           13.31231396333119       -2.70911195133095       -0.24602196748416
C           12.03706129405824       -3.36227901032461       -0.18721772125519
C           11.09945847739849       -2.38737939971160       -0.14384676093494
C           11.80274495441876       -1.14117170437156       -0.15578678702923
N           13.15938418516481       -1.34659743113375       -0.18895424058003
H           10.09184281857813        0.10376051827772       -0.19858318622129
H           10.10444061947945        2.68890796641572       -0.15867549026990
H           12.01121027076156        4.56635235976799        0.17913907134089
H           15.25520154695252        4.75330956173324        2.64050501634956
H           15.28970421241980        7.21199653637842        2.99049979956287
H           14.39522481802597        9.72807902464205        0.34592811835543
H           14.02155358230762        7.80329776356138       -1.05989577597145
H           13.99505352065557        5.35893173404204       -1.41119037139517
H           17.21824452100453        4.42727242892979        0.80878140389155
H           19.09191029083139        2.50896589837372        0.53725424903754
H           19.02354380100814       -2.55048125228885       -0.69292613374465
H           17.10497900250703       -4.43813146551607       -0.86047110515480
H           13.36985015675887       -4.84273511191447       -2.34354093010939
H           13.33626058385249       -7.30157758940867       -2.56385326133657
H           13.93434044644205       -9.49853549992821       -1.76768620461012
H           15.61152838658282       -7.66099749270942        1.04975277115846
H           15.63793621618751       -5.18846372355177        1.27731897759507
H           11.89135569542820       -4.43017415968304       -0.17753398113432
H           10.02623440832190       -2.48284018460563       -0.10101302333553
Ni          30.57031340551358       -0.02393237543722       -0.06747771626423
C           33.96262783465063       -0.06270175504082       -0.17524931507788
C           33.29784220529333       -1.26492608474973       -0.29542970778541
C           33.96550470296656       -2.52218693452419       -0.44269630894018
C           33.00647523261718       -3.47630687298568       -0.41288537709088
C           31.75141904314568       -2.79923425856658       -0.26271604219984
N           31.93961982616783       -1.44112953483889       -0.20496701725962
C           30.53414223583572       -3.45054602469674       -0.11240326470254
C           30.51623457620115       -4.93295570750370       -0.11156870649842
C           30.14503454351619       -5.63198003804144        1.04036752042851
C           30.12987556247484       -7.01355466091673        1.04223054875162
C           30.47984781273283       -7.72633471718369       -0.10924655219471
C           30.45315141311486       -9.20041388386956       -0.08281943624006
O           30.14666316761415       -9.84672165830448        0.88592679006337
C           30.84747936614701       -7.02789076060522       -1.26167145327343
C           30.86779464718496       -5.64427911926941       -1.26135036703220
C           29.32972586129584       -2.77469283724187        0.02830433099526
C           28.06072914455642       -3.43056754741670        0.12509439281240
C           27.11737096066866       -2.45906737622409        0.12248415330636
N           29.16414040186729       -1.40884041378746       -0.01808051803783
C           27.81099501475241       -1.21438446143993        0.02386469254158
C           27.15625472577442        0.01677403687556       -0.07022837471679
C           27.84123409605653        1.23289925645508       -0.13262275184913
C           27.18019321267612        2.49541312069748       -0.22666151476402
C           28.14494521667577        3.44431970625106       -0.16844094490237
C           29.39350192763111        2.75648518685819       -0.03562259185648
N           29.19715540772960        1.39441143183557       -0.04746372743783
C           30.61709029205002        3.40011834126687        0.09696567774900
C           30.63329709914677        4.87905845918662        0.17820044061307
C           31.28468369889197        5.63294097643698       -0.80184100596112
C           31.29764386428364        7.01452130815426       -0.72954281441173
C           30.66330013381424        7.66965322482044        0.32863167598329
C           30.66481117917456        9.14065228895669        0.42951739271160
O           30.13468303882013        9.75076489439046        1.32224392303426
C           30.01326585027888        6.91513568809199        1.31086769276300
C           29.99559688275459        5.53576115655537        1.23491122152161
C           31.82533660274069        2.71632338123055        0.14133326907342
C           33.10060509110269        3.35452475990220        0.29212066355690
C           34.03816907145806        2.38323734118982        0.19733594868931
C           33.33485369838725        1.15131636016660        0.00891769205387
N           31.97823013037178        1.35947107555939        0.00470603659686
H           35.04575559089530       -0.07514325338686       -0.20897647909634
H           35.03313021419297       -2.63941352953421       -0.53844526662705
H           33.12618622839293       -4.54572947218881       -0.47357960691173
H           29.88239103034093       -5.08123858795896        1.93642927192144
H           29.84831469543947       -7.56470127987467        1.93302580140744
H           30.74218923750434       -9.67873005501848       -1.04287736140807
H           31.11637866003049       -7.57345218229724       -2.16033501956468
H           31.14233636083944       -5.10397069484121       -2.16029275291177
H           27.91922940278605       -4.49789704731083        0.17000942391951
H           26.04550385543985       -2.56061848700692        0.17422372990751
H           26.11399699265299        2.62245332570313       -0.32222124994748
H           28.03243946190416        4.51489387864572       -0.21929920772515
H           31.76711784019444        5.12743171058327       -1.63082118045478
H           31.80059314083298        7.59253859176079       -1.49800101247355
H           31.20340549567209        9.65335700937258       -0.39581295421365
H           29.52604881067995        7.43249568723285        2.13035820980728
H           29.49984175808509        4.95280826049750        2.00282873415940
H           33.24639065432171        4.41030524832387        0.45273971009841
H           35.11138855480547        2.47163012582220        0.25343728577056
C           23.18258045017914        0.01245571879637       -0.10486112318320
C           21.95496544749059       -0.00206244273076       -0.10619874803229
C           20.60976583451090       -0.01016649425725       -0.09939060503008
C           19.38654912124953       -0.01636527067920       -0.09138615832338
C           24.52778913183494        0.02019753710909       -0.09797163380903
C           25.75099530486258        0.02896724197216       -0.08863707575465
