187
 energy: -321.209788436923 gnorm: 0.000972722300 xtb: 6.5.1 (b24c23e)
Co          31.72542517095911        0.02864216923720        0.02224483206611
C           28.35780429740189        0.11337609435573        0.13148198614570
C           29.01410685608735        1.04681871859548       -0.64300397139827
C           28.35697864149904        2.03273319398239       -1.44498516336030
C           29.31862173149835        2.87996181566359       -1.88390463398679
C           30.55976344102809        2.41958046186241       -1.33388447097319
N           30.37101337654124        1.25430896004453       -0.63688054661587
C           31.75357051697883        3.13100611228503       -1.38577331362487
C           31.76572643107101        4.47765346455062       -1.99479379211069
C           32.62518638863074        4.77111838912368       -3.05706214504964
C           32.63661038748148        6.02805416034616       -3.63414246188651
C           31.79576365892086        7.03171818040053       -3.14565394937799
N           31.77701941595744        8.27872274847571       -3.74449854618528
C           30.93178495570806        6.74619992746916       -2.08491355996242
C           30.91812981778502        5.48310294679797       -1.52150809595754
C           32.93279591470703        2.60910082260652       -0.87217443921210
C           34.17676281948306        3.31642053219643       -0.82571579060604
C           35.12246726489386        2.42142368451340       -0.44817398753886
N           33.10657749900582        1.31042126761291       -0.45120561424752
C           34.45195566488868        1.17548462220322       -0.25465081326662
C           35.11422948168343       -0.03717333080623       -0.04042364199975
C           34.41453868253430       -1.22664723845277        0.18513792976331
C           35.04211000925782       -2.50064991304969        0.33352621459618
C           34.07435689374062       -3.36696947587595        0.72225699789567
C           32.86186060914744       -2.61267692175548        0.82737391678511
N           33.07231256846331       -1.31351970785238        0.42375660501771
C           31.68640097479143       -3.09269835697446        1.38789706868382
C           31.66418248862926       -4.45009986442664        1.97200117329522
C           32.56215233346223       -4.80715792528648        2.98164217796988
C           32.53876852594445       -6.07370338593887        3.53681419394812
C           31.62177426077392       -7.02363804595216        3.07865805499606
N           31.56930412466578       -8.27836868345281        3.65832524783615
C           30.71871190934660       -6.67422583508393        2.07083681952810
C           30.74104108741505       -5.40164927628491        1.52950341450460
C           30.52780665199913       -2.32362157236413        1.41809270444407
C           29.30343767257174       -2.72897075790381        2.04369909345304
C           28.36192187553982       -1.82242712702847        1.68742331026196
C           29.01492075262706       -0.85901789042281        0.85527463667895
N           30.35543922727960       -1.13776955809464        0.75317500380545
H           27.27513663356286        0.14250101433983        0.16902543609050
H           27.29521139549361        2.05986924756352       -1.63246356998485
H           29.20951702493079        3.74261844820274       -2.52112716614314
H           33.27371341313010        3.99485762866632       -3.44819863286847
H           33.29834333139024        6.23951366881785       -4.46700413255480
H           32.61350934914272        8.52198756036032       -4.25056591237969
H           31.41790045778360        9.02362465686048       -3.16897048399524
H           30.27559413102815        7.52062517275556       -1.70289091040208
H           30.25893997502827        5.27549217917831       -0.68566024064419
H           34.30004726630771        4.36303252863818       -1.05218243688017
H           36.18147232451508        2.57417192128841       -0.31525061261658
H           36.08950640882679       -2.69101633017470        0.16240053663296
H           34.16374642517555       -4.42236859860564        0.92221166677556
H           33.26916836525015       -4.07231946484460        3.35068921903346
H           33.23159050149482       -6.33429251684308        4.32940972447634
H           32.41581808142202       -8.57347302348630        4.11781287375834
H           31.13949779707580       -8.99349186923693        3.09393594410366
H           30.00337502769671       -7.40653623844556        1.71273170082272
H           30.04930498405507       -5.14440845292173        0.73481595225396
H           29.19140005666014       -3.59693655265695        2.67308107221863
H           27.31562440315398       -1.79655778148842        1.94781906741350
Co          58.50447843787857       -0.02090942887381        0.04160250964927
C           61.87511556075032        0.01788480079432        0.17362440114691
C           61.21742477425656       -1.13913544418265        0.53360922674287
C           61.87646691101747       -2.34729248007892        0.92512748737619
C           60.91436197859647       -3.18287996544179        1.38389604156305
C           59.67072982630773       -2.47629916187276        1.28755624822824
N           59.85948410737488       -1.25195597378994        0.69956559726222
C           58.47312168329054       -2.92321678429602        1.83331301259291
C           58.46200316624210       -4.17837562001150        2.61523673305313
C           57.63149813733141       -5.24047382319775        2.24822160093827
C           57.62551162002345       -6.41930850072230        2.97207187951251
C           58.44246249052486       -6.55545578771238        4.09763257439436
N           58.46920795984509       -7.74698461833896        4.80058890560757
C           59.27622179890916       -5.49805068508739        4.47142859557798
C           59.28486823701035       -4.32724847175948        3.73492261481611
C           57.29070776024724       -2.21539732231390        1.66970768210780
C           56.04247628279692       -2.58597330379299        2.26512682699193
C           55.09799006917541       -1.77251523512855        1.73303687568860
N           57.12005532778360       -1.13509448003604        0.83428913224614
C           55.77317062491065       -0.90159699482488        0.82449890127809
C           55.11288949422492       -0.02849935537190       -0.04347255944926
C           55.81067147646785        0.83688396735892       -0.88952408901297
C           55.17861946617951        1.68773680259302       -1.84669027217110
C           56.14741645024890        2.48923360140344       -2.35281274133054
C           57.36558247758654        2.13601815256871       -1.68826594197677
N           57.15628187938454        1.07143957081170       -0.84107669816115
C           58.54830973405776        2.85417473992290       -1.79402521546187
C           58.57271923268971        4.09544372222123       -2.59729875268706
C           57.70359115857205        5.15042654380942       -2.30680729983458
C           57.73047928008845        6.31710257628073       -3.04939601382870
C           58.62192282700548        6.44832485056964       -4.11770518908642
N           58.67970788318092        7.62841511024555       -4.83679708770227
C           59.49576133404063        5.39860736563514       -4.41394103935061
C           59.47027764348231        4.24002718534610       -3.65871228757400
C           59.71163654878212        2.43922533935858       -1.15598700158854
C           60.94265563968658        3.17375832294900       -1.16551750151154
C           61.88169738952379        2.37287480576654       -0.60774399117843
C           61.22116105490715        1.15525677167179       -0.24943968159603
N           59.87940008996044        1.23093523904563       -0.53054329633320
H           62.95774431946161        0.03190008680174        0.21998951354219
H           62.93972952601295       -2.51398532490454        0.85481804649673
H           61.02412615076251       -4.18805522666086        1.75770572343262
H           57.00166276122262       -5.14626751450563        1.37039217152806
H           56.98693267405531       -7.24188124503209        2.66890325431424
H           57.64654117986171       -8.32005145357243        4.70165405217431
H           58.80512960065241       -7.67652598600379        5.74778701207913
H           59.91339754983691       -5.59827853844541        5.34335064445322
H           59.92142142127734       -3.50468288253539        4.04229400041937
H           55.91625092607727       -3.36760317863488        2.99658215609977
H           54.03698910555266       -1.75484167651877        1.92395408101610
H           54.12787005047539        1.66402590356006       -2.08730339623131
H           56.05568698153849        3.25333309483819       -3.10751768082277
H           57.01646573049172        5.06098234970516       -1.47251213453076
H           57.06028942213402        7.13412167454441       -2.80532839764053
H           57.84664021269606        8.19368460408425       -4.80138930099715
H           59.08432404450803        7.55169271870260       -5.75597414153810
H           60.19122034172437        5.49547625783673       -5.24055455589459
H           60.13978332427520        3.42346472349063       -3.90621555408419
H           61.06008331589027        4.17351216860816       -1.55124640241725
H           62.93097389809252        2.56784234243505       -0.45197530644147
C           37.73890595998917       -0.07514984664888       -0.06499452873963
C           36.51590446036214       -0.05998354346686       -0.05519408854974
C           39.08684836965696       -0.08084100462114       -0.06775314381664
C           40.31014756116114       -0.07700368854003       -0.06430857856970
C           51.13697683486458       -0.02553799178192       -0.07813899081639
C           49.91427624129010       -0.02554447898569       -0.07089121367935
C           52.48661078492208       -0.02523701607548       -0.07718375916265
C           53.70893285516590       -0.02593574432831       -0.06748960267580
Co          45.11163722181273       -0.04419512347884       -0.03558156548731
C           41.71180639267876       -0.06663232541864       -0.05195234696071
C           42.38800915554233        1.01723642990302       -0.62055472788562
C           41.71810107312166        2.12620653142822       -1.22087147814249
C           42.66445461859161        3.06563123717838       -1.46173168994279
C           43.91160502445143        2.51876900515331       -1.02082090083905
N           43.73268585456668        1.24259977991913       -0.53823194226953
C           45.09124049907037        3.24617307312459       -0.93725330503423
C           45.08289684281129        4.67524043504372       -1.32721223128811
C           44.80927795868726        5.05407670262134       -2.64328814539404
C           44.80531552690978        6.38826396264828       -3.00979103686992
C           45.07261980568732        7.37746307743308       -2.05954819906225
N           45.02054681148495        8.71414363561667       -2.41066256508080
C           45.33560180606597        7.00582815858881       -0.73827366030943
C           45.34809392439158        5.66895987087181       -0.38236798247303
C           46.28272247234261        2.67449719767728       -0.51128295211671
C           47.52991230436715        3.37610356810857       -0.47078954120488
C           48.49216429652581        2.45068459428555       -0.23966524263752
N           46.47637711380255        1.33529188060968       -0.26192021979478
C           47.82972418087439        1.18978278598155       -0.13973243603194
C           48.51081559280249       -0.02665225591551       -0.04438589666648
C           47.83630514224883       -1.24298759303711        0.09145057623278
C           48.49861276990585       -2.50563178705250        0.16225252616906
C           47.54925565461583       -3.42366538276976        0.46939340326825
C           46.31353265747173       -2.71295909785126        0.59236118099751
N           46.49299716196629       -1.38193933448136        0.30038524007206
C           45.12915600240245       -3.28303691695889        1.04368256120403
C           45.14306480062108       -4.68599801509578        1.50872099137787
C           44.31258276792115       -5.64398799999398        0.92057053425517
C           44.33176577060028       -6.95873356590367        1.34954091300491
C           45.18298944489975       -7.34549380865366        2.38846620368174
N           45.16907477085351       -8.64747866716496        2.85362029753330
C           46.00649793302771       -6.39059949436130        2.99143936695515
C           45.99099199697899       -5.08101223839685        2.54733013250684
C           43.93520479291428       -2.57511241548340        1.05998617455962
C           42.69647791469971       -3.10402214628594        1.54434206819419
C           41.73436896991878       -2.20813790553470        1.21423497575815
C           42.39272584787817       -1.12887892259123        0.55066326996644
N           43.74313883012374       -1.32784600609290        0.51043616006616
H           40.65690915944908        2.17442703816308       -1.40485523912115
H           42.53422399081630        4.05038206773441       -1.87961019445861
H           44.61884245058683        4.29120667832507       -3.39015935278707
H           44.59851134825900        6.67077557213214       -4.03626564756375
H           45.15198065326153        8.90634748057266       -3.39065225689520
H           45.52199632625878        9.33840257034648       -1.79935173672036
H           45.53080917200018        7.76989319030623        0.00621596379645
H           45.54493710714615        5.38822550048485        0.64647394687794
H           47.64766098334933        4.43567716678636       -0.62871057607400
H           49.55795958582846        2.59097469641151       -0.15762271537527
H           49.55422843827498       -2.65399704356066        0.00094773354260
H           47.66541044428563       -4.48751145083607        0.59770424702675
H           43.66371775612856       -5.35643758295604        0.10056270935872
H           43.68985269950045       -7.69520187877150        0.87861653156164
H           45.99664436963396       -8.93383685738489        3.35142516006570
H           44.82457994512520       -9.33296462308281        2.20089521287744
H           46.65833752830643       -6.68172947019372        3.80788925470563
H           46.62661502147073       -4.34403111877421        3.02581656538887
H           42.58652725349015       -4.03980776642512        2.06756974481183
H           40.67304490938654       -2.25909931103002        1.39685353333112
