278
 energy: -556.458378102104 gnorm: 0.000976778030 xtb: 6.5.1 (b24c23e)
Zn          43.28354520892532        0.04326970699634        0.00724609735990
C           39.87477298882214        0.10568525115080        0.05738779822595
C           40.50544336030656       -0.20108563665371        1.25694375096421
C           39.83237452214674       -0.51617062431767        2.48622693371826
C           40.79187221319621       -0.75641329809137        3.41397459552740
C           42.06428647802704       -0.57941339601231        2.76441716564304
N           41.85520345470685       -0.25261541180483        1.45711516541431
C           43.31698358212175       -0.74278393964464        3.36822155803133
C           43.33177889736317       -1.08829870549436        4.81119796726075
C           42.79782539931120       -0.20621349561957        5.75412510938834
C           42.81269957177167       -0.52355390986824        7.10226991607077
C           43.36054124797941       -1.73428846016438        7.49459906408086
S           43.38989162775502       -2.13815606304605        9.19963984348158
O           43.35218461143743       -0.95337223096159       10.00588873565509
O           41.93777595581803       -2.86121589506140        9.29571992683613
O           44.39764640144215       -3.12003360536235        9.47435182807814
C           43.89846814245166       -2.62931747975559        6.58395382042976
C           43.88319142401128       -2.29878324520182        5.23898622689130
C           44.55649976902278       -0.60962313518680        2.73267005911687
C           45.83664453917951       -0.72238807377975        3.37630257984856
C           46.78182108214449       -0.51221629375982        2.42535321837203
N           44.74822489045046       -0.32041557865744        1.40853215711297
C           46.09019683957798       -0.26219314411751        1.19462723937849
C           46.71986144646775       -0.00369506268658       -0.03924890436117
C           46.06467179619817        0.26584071525688       -1.25724934092348
C           46.72932666198031        0.49014445608928       -2.50753822646077
C           45.76465535277283        0.71802003617375       -3.43466875410397
C           44.49978043969416        0.64541789804465       -2.75595052454344
N           44.71945803711988        0.35893555297523       -1.43563735529303
C           43.24737324139228        0.81356907242911       -3.35736106900627
C           43.23079975154543        1.14575055749460       -4.80329508026146
C           42.62848740257549        0.27928396066349       -5.71916531028312
C           42.60847391853641        0.58525618646889       -7.06991642777113
C           43.19500630428647        1.76712605361002       -7.49267656745795
S           43.16040785756080        2.16648134343231       -9.19945888084324
O           43.31660744956964        3.57748967019412       -9.40329310329721
O           44.54992505579193        1.45158302627868       -9.64474813336886
O           42.07291082946618        1.49618302470094       -9.84763546348391
C           43.79562457279449        2.64904640270640       -6.60884991502916
C           43.81254557026629        2.33094671205281       -5.26092449266111
C           42.00790841577580        0.69848559673905       -2.71586154752807
C           40.72419671419514        0.92157321478822       -3.32815493503801
C           39.78442348260378        0.72307992929553       -2.37091571169549
C           40.48124553141298        0.38657308059924       -1.16074108532599
N           41.82557699453809        0.38549498202990       -1.40117722701965
H           38.78954820220832        0.12698500805156        0.07337741811680
H           38.76146221650495       -0.55385665287116        2.60957217933528
H           40.65520462042893       -1.03947868220155        4.44539752883291
H           42.38509121176849        0.74114601658961        5.42738630411715
H           42.41279070136787        0.15800753134203        7.84247395680765
H           41.77311432728167       -3.15915351682026       10.19857977616402
H           44.32334056080660       -3.56467034509399        6.92597445646405
H           44.28991381871848       -2.98902553410741        4.50903606188262
H           45.99085841100824       -0.92264546599172        4.42433490879843
H           47.85391895913003       -0.51853619690180        2.54059643441242
H           47.79776017034719        0.46627523162181       -2.65139128182995
H           45.89606314503251        0.90633892143272       -4.48801719514592
H           42.18536525025283       -0.64580302613847       -5.36923052417771
H           42.14318014803196       -0.07869756813394       -7.78755855919221
H           44.82785043598529        1.77509319004171      -10.51030016725340
H           44.23388855349543        3.57012324781157       -6.97211832855757
H           44.26527401820694        3.01369334354816       -4.55135111575110
H           40.56727953523799        1.20579257712151       -4.35631205915272
H           38.71257744419685        0.80213446599224       -2.46247158038377
Zn          99.15710730767100        0.03666664575160       -0.01216154673191
C          102.56577644083939        0.12568080223290       -0.03519900773083
C          101.93493370902509        0.28247548903107       -1.26326634912305
C          102.60759231469815        0.44853347830273       -2.52157220543656
C          101.64778697487068        0.56512079895997       -3.47250955810102
C          100.37553775482006        0.48237124434676       -2.80399714172637
N          100.58509366052004        0.30262129738903       -1.46867236699580
C           99.12267958573568        0.54615040860132       -3.42608782072722
C           99.10792513462438        0.76134575882272       -4.89419078095653
C           99.63443960180366        1.93465523823586       -5.44053577133039
C           99.62010602006403        2.14170215566382       -6.80998346875294
C           99.08023943048133        1.16009424281999       -7.62533990857164
S           99.05182345271747        1.41925888975059       -9.35833713552766
O           99.08569205289716        2.81908793952397       -9.66521037004756
O          100.50550156529623        0.78639755580683       -9.71537733468347
O           98.04751881055638        0.60717438415045       -9.98054246445376
C           98.54981721161286       -0.01328024475221       -7.11386198123932
C           98.56456355112226       -0.20690140075437       -5.74245449939350
C           97.88358737817715        0.42558790269751       -2.78718142521342
C           96.60288249613555        0.54768013844109       -3.42808394325700
C           95.65823626384748        0.38638270318614       -2.46713277844540
N           97.69246047635318        0.20580620363734       -1.44964386408621
C           96.35058624339327        0.17229728400415       -1.23003180223256
C           95.72116411689312       -0.03926581840713        0.01293685662806
C           96.37657434973565       -0.22909774129450        1.24580222431688
C           95.71249899689360       -0.48005564477030        2.49133516592651
C           96.67749008774203       -0.60614957119328        3.43734748920700
C           97.94191664413965       -0.42234394309351        2.77911171407372
N           97.72176668803345       -0.20476040415670        1.44581539522368
C           99.19457115842064       -0.48546747547294        3.39975983731186
C           99.21265341900880       -0.71168960652495        4.86602697424011
C           99.81648666576766       -1.85537735424853        5.39491547117276
C           99.83935298728605       -2.07117622254470        6.76288890204612
C           99.25418515597381       -1.12997142192363        7.59433179425120
S           99.29399682920921       -1.39025535950570        9.32770147118721
O           99.14460998532388       -0.15426712609358       10.03976996846217
O           97.90209425084743       -2.21393519712494        9.48344176596492
O          100.38009041887598       -2.25640766292741        9.67734267770738
C           98.65165704809630        0.01597328717576        7.10087695970739
C           98.63177164265038        0.21941194798627        5.73096138295715
C          100.43361950307165       -0.35324948918578        2.76076269257889
C          101.71733307281488       -0.36861192217333        3.41222265800795
C          102.65670599236778       -0.19745830478946        2.44934807143360
C          101.95962054874144       -0.06541973992617        1.20036982993122
N          100.61551923134502       -0.15872818429588        1.42333729669770
H          103.65092079143884        0.15490924739725       -0.04185701494107
H          103.67849035640528        0.46416846106846       -2.64985234609814
H          101.78427062336748        0.68542015654871       -4.53529870715907
H          100.04099557882493        2.69521894676583       -4.78413431786200
H          100.01433490283259        3.05251627433837       -7.24281541046136
H          100.65791396382281        0.81885930532900      -10.66759063446681
H           98.13102757465775       -0.75714414952188       -7.77992442833599
H           98.16382638276566       -1.12209813868404       -5.32236494151685
H           96.44792479854016        0.74537534062681       -4.47646698947035
H           94.58599412797970        0.41497856559847       -2.57752047331466
H           94.64421623320618       -0.55713464511839        2.61635467022725
H           96.54655428603580       -0.81748712393961        4.48638752239817
H          100.25889199540062       -2.58485279734009        4.72652768784619
H          100.30606804054725       -2.95329276347480        7.18288460746935
H           97.62071448724534       -2.21942889943553       10.40639136493155
H           98.21452937041200        0.73697759743247        7.78022935262137
H           98.17761146182734        1.11602492322431        5.32546714738519
H          101.87441776101392       -0.48321949825380        4.47275233839478
H          103.72843295095348       -0.15494889735745        2.56365553482790
C           48.12579151713943       -0.01486250302815       -0.05492500709257
C           49.35020294353789       -0.02143720982881       -0.06215042938374
C           50.69343963209825       -0.02502861572204       -0.06894672714760
C           51.92390890245860       -0.02868206945269       -0.06924681040325
C           53.26232566102577       -0.02960125416342       -0.06893025478295
C           54.49286356633572       -0.02889753112300       -0.06687805110542
C           55.83589005763336       -0.02982461448941       -0.06200252256808
C           57.06051776946228       -0.02772259573899       -0.05894890683982
C           66.75363930343535       -0.02924842906433       -0.02839066222371
C           67.97871668268776       -0.02941467942919       -0.02548981692163
C           69.32083971379848       -0.02851938551573       -0.02186049803372
C           70.55192219713632       -0.02822398927163       -0.02065340568726
C           71.88934153458419       -0.02735927577239       -0.01982482264892
C           73.12044137435610       -0.02728786693692       -0.02032347026342
C           74.46255564164666       -0.02948292307211       -0.01938167171570
C           75.68762692698363       -0.03094758963049       -0.01807772592517
C           85.38068755671759       -0.07098471144106        0.01062079623230
C           86.60530683449943       -0.07619969149688        0.01765961579740
C           87.94833788319001       -0.07732881533321        0.02218714832783
C           89.17886477289794       -0.08351102403176        0.02762593204395
C           90.51725364112296       -0.08595568940088        0.02924469504669
C           91.74776613923412       -0.08505858579530        0.03068525943050
C           93.09095126917921       -0.07313711949823        0.02928733328903
C           94.31531707693354       -0.05935697790121        0.02416198075535
Zn          61.90813116232774       -0.02891757593354       -0.04209184230754
C           58.46587468329026       -0.02796463790730       -0.05290758238460
C           59.10810921353105        1.05347636981126        0.58273981021769
C           58.42933741254555        2.12791879703196        1.24495576502890
C           59.38432670232925        2.96867870571647        1.71817006871063
C           60.65636074932576        2.41844084984232        1.34026792536537
N           60.45195254605434        1.24864134690128        0.65990992009218
C           61.90274427879213        2.97784017435148        1.64354032199739
C           61.89746291565313        4.27404914844115        2.36667213495894
C           62.45556569521315        4.37279501128219        3.64351476787971
C           62.44531979028999        5.57894815245512        4.32471446232926
C           61.87471722517245        6.68324005583062        3.71298262826947
S           61.86502061974716        8.21507417379442        4.56602034014237
O           61.77345648087547        9.31550442111033        3.65078715277154
O           60.42433231768214        8.07344511625277        5.30332370705463
O           62.89125441347944        8.23697048046567        5.56500631159743
C           61.32073518972921        6.61900888031335        2.44463255721842
C           61.33263649441960        5.40679207827436        1.77482661520296
C           63.15074772575456        2.42968764848462        1.32838365246772
C           64.42115603849022        3.04049504276863        1.60474067893435
C           65.37851690437424        2.19968213114773        1.13637188805381
N           63.35880047135925        1.23921970438214        0.68506148048767
C           64.70291623009099        1.07394020487676        0.56187943198558
C           65.34927890669020       -0.02940192577225       -0.03205815331596
C           64.70645949086536       -1.13273120125568       -0.62993135212290
C           65.38508795018932       -2.25870744068636       -1.20048576479552
C           64.43025671278613       -3.09844079155563       -1.67592838181630
C           63.15847948699661       -2.48702883067064       -1.40723291950621
N           63.36305253926458       -1.29733619500697       -0.76158203859296
C           61.91213906918466       -3.03417183412346       -1.73068434458993
C           61.91076329349544       -4.32831848784007       -2.45733019485822
C           62.47659393791138       -4.42290714456942       -3.73113806647369
C           62.46935284275216       -5.62645879794239       -4.41685931612027
C           61.89413880422445       -6.73250510327606       -3.81261288429287
S           61.88669750253083       -8.26038230675616       -4.67243972016457
O           61.78169394158965       -9.36460726656545       -3.76330851962804
O           60.45397113958546       -8.10815220190431       -5.42324088817838
O           62.92213412640010       -8.28269175244281       -5.66193119988656
C           61.33287582340848       -6.67252092272048       -2.54727430289638
C           61.34175325160838       -5.46277528864877       -1.87290008083487
C           60.66427692069416       -2.47479948059251       -1.43353817606328
C           59.39424986644344       -3.02469835650875       -1.81867049451610
C           58.43684349636232       -2.18382975566794       -1.35060523552707
C           59.11207808515369       -1.10975874936601       -0.68415911307690
N           60.45629106334650       -1.30522691185053       -0.75390179748993
H           57.35885608652765        2.21735480034598        1.33855580814153
H           59.24128461645372        3.87496205893598        2.28418584945908
H           62.88666044770698        3.49407916928444        4.10889313573306
H           62.87434874353140        5.66629284918364        5.31498145372404
H           60.12507302208474        8.93586770883414        5.61594744426497
H           60.89465101075869        7.50505295202517        1.99096656061432
H           60.91445637658249        5.33727088104827        0.77738887695519
H           64.56154074557564        3.99574271987859        2.08426675509219
H           66.44876463304537        2.32725821613345        1.16729389127968
H           66.45543266148526       -2.38712058405910       -1.22435836857274
H           64.57309764307389       -4.05341004573259       -2.15530808784285
H           62.91111672775099       -3.54281726442617       -4.19067604854454
H           62.90413599660906       -5.71048478466699       -5.40489936953804
H           60.16058736592500       -8.96536681168498       -5.75498396141743
H           60.90332305385382       -7.55986718515152       -2.09945214499196
H           60.91770062596957       -5.39664393901568       -0.87770967094351
H           59.25407088881554       -3.93089276073703       -2.38554659517477
H           57.36686899433453       -2.27327509061167       -1.44979225561297
Zn          80.53388049971738       -0.04581250015282       -0.01239641239267
C           77.09194030057895       -0.03419287705003       -0.01805557075918
C           77.73906127824216        1.04821962026262        0.61238184924430
C           77.06440739666775        2.12845717335665        1.26950938065507
C           78.02267099932359        2.96634435648094        1.74133255217114
C           79.29259816144943        2.40793008399531        1.36864230045722
N           79.08334263585391        1.23694812940576        0.69107816013883
C           80.54099074310999        2.95982914325477        1.67540936388669
C           80.54521350782909        4.25759883060928        2.39589042738530
C           81.10338000026371        4.35383352364070        3.67296136862154
C           81.11576707617725        5.56427619581264        4.34632709432154
C           80.56707818439814        6.67544453613293        3.72693600826429
S           80.59926464623864        8.21543966166392        4.56444234022737
O           80.54040886758179        9.30829614377626        3.63748089358454
O           79.15483765833972        8.12520608472997        5.30213805020171
O           81.62550288717479        8.21726098692192        5.56360254657251
C           80.00881498757964        6.61236410240867        2.46037841683584
C           79.99772594129789        5.39575913823336        1.79841104189278
C           81.78701405359574        2.40420495480225        1.36383482710491
C           83.06003874008083        3.00784888749187        1.64435520385420
C           84.01407780360840        2.16254084941613        1.17753972975393
N           81.99009675515497        1.21374952982958        0.71972286744011
C           83.33396571050976        1.04138421372485        0.59937861264005
C           83.97535585220383       -0.06238677281930        0.00210608964418
C           83.32848737992380       -1.15872882750113       -0.60274607823149
C           84.00274865234394       -2.28455574631668       -1.17874063985433
C           83.04464785299183       -3.11802485016944       -1.65833118786379
C           81.77515626605867       -2.50299142457009       -1.38636723383070
N           81.98416267127448       -1.31729335019840       -0.73553320299389
C           80.52660653206898       -3.04592402599212       -1.70990868047730
C           80.52524277334366       -4.33732155796825       -2.44163829112114
C           81.09168675175624       -4.42548337489567       -3.71570285722682
C           81.09754196442155       -5.62881541281388       -4.40171600020617
C           80.53406209242696       -6.74110333221732       -3.79784516537376
S           80.55482910450226       -8.27166125085997       -4.65252913516672
O           80.46219032019374       -9.37357328023114       -3.73923643420303
O           79.12500900481669       -8.14551730340597       -5.41298831633067
O           81.59686213809636       -8.28102059121932       -5.63525974493676
C           79.96816236929155       -6.68626058696456       -2.53429284288679
C           79.96390000528623       -5.47665653355619       -1.85952769164227
C           79.28090107969372       -2.48624341441128       -1.40623421623287
C           78.00848864209546       -3.03418928606036       -1.78584284909993
C           77.05431130712394       -2.19261609644917       -1.31229248469302
C           77.73400782719308       -1.11955261875072       -0.64870855762632
N           79.07728608884075       -1.31699572823237       -0.72386537798881
H           75.99416601200416        2.22373348791881        1.36009638312879
H           77.88336008786393        3.87590163186386        2.30304698612514
H           81.51922063317583        3.47046680012688        4.14339580048533
H           81.54756431891710        5.65025357924912        5.33550650767978
H           78.87269753076656        9.00294990823802        5.58697697974662
H           79.59910143456611        7.50317673201265        2.00094906257924
H           79.57759632128925        5.32760193051775        0.80169239672028
H           83.20453596945239        3.96177745670911        2.12525033018665
H           85.08487891302664        2.28458753342373        1.21119614699211
H           85.07257963002323       -2.41711834104802       -1.20311307583643
H           83.18394822572314       -4.07129997835238       -2.14209927539620
H           81.51886704007731       -3.54112223642624       -4.17391830092245
H           81.53530742858692       -5.70845679696190       -5.38880184273103
H           78.84595727152728       -9.00878431410442       -5.74161775614759
H           79.54707007960016       -7.57805361774814       -2.08724166924798
H           79.53798054141184       -5.41508762182229       -0.86483685839683
H           77.86479343212361       -3.93991364710580       -2.35260578244735
H           75.98376018687104       -2.28052434288518       -1.40654863987304
