296
 energy: -504.653709960779 gnorm: 0.000337313595 xtb: 6.5.1 (b24c23e)
C           46.97345355018096        0.06685481813900        0.13705439229723
C           47.60143629462924        0.61209248534189        1.24945562121916
C           46.97607087772781        1.13645880371948        2.41618382281127
C           47.95788120528596        1.57583327533133        3.25899330045488
C           49.21467095200600        1.32815893017807        2.63734677761894
N           48.94891028415788        0.75330377886485        1.42636299277675
C           50.48414248289600        1.62074073790441        3.14302009142428
C           51.69272753436612        1.33360271442689        2.50610649675497
C           52.99361938042281        1.58647174288910        3.09831817487775
C           53.90972696497650        1.17622570453932        2.19604880819587
N           51.83988361788234        0.78577162043535        1.26839466281475
C           53.16748561640217        0.67653513573513        1.05490260420095
C           53.79106922486011        0.14732641619814       -0.09166502417146
C           53.13712935809757       -0.37104585611314       -1.22372355810779
C           53.75545916236234       -0.84884249245530       -2.41013164445581
C           52.76850549645589       -1.22190110625174       -3.27963423837372
C           51.51614675938438       -0.99139554785071       -2.64648330572443
C           50.24556439502376       -1.22252114769876       -3.18185635945820
C           50.19004641128567       -1.82281852870871       -4.54701918277148
C           49.77513159964806       -1.13864743053243       -5.69396998685101
O           49.41779086912218        0.17108444694413       -5.75673707138733
C           49.79488559070722        1.13448625378022       -4.79007309362796
C           49.69104681499712       -1.81240691808986       -6.91928820044654
C           50.02815749310557       -3.14716860615499       -7.00893152069053
C           50.46714445785107       -3.84230777443201       -5.88822945747168
C           50.54567775140912       -3.18151448561633       -4.66797655403013
O           50.94720810988812       -3.78237570241638       -3.51463442899020
C           51.33058256655242       -5.14266322623553       -3.51235853899688
C           49.03809699316383       -0.99724774979540       -2.51504707115286
C           47.73228927307961       -1.32877462751506       -3.06303858088835
C           46.82537273084208       -0.97431819892252       -2.13030057423098
C           47.57560929453417       -0.42272452454034       -1.01540092077378
N           48.90445642464248       -0.45362074540710       -1.28064086998571
N           51.79000222789634       -0.47303584809178       -1.40872185279569
C           50.53741460588429        2.19853591719315        4.52061730344044
C           50.76792484398782        3.54318463535428        4.82363716600254
O           50.93784595298941        4.55643325823425        3.93594471131899
C           50.79074211628992        4.42384091982166        2.53523131771264
C           50.83415796202880        3.95514487634950        6.16231068842312
C           50.66887613334208        3.04644712669492        7.18627332629182
C           50.42558214658254        1.70605553822142        6.90959203387618
C           50.36017837062010        1.29089450212528        5.58515237607239
O           50.13261268241914        0.00142766797523        5.21360805772627
C           49.98019037705709       -1.00796821952742        6.19079392716805
H           45.88975398286316        0.02664852292049        0.17933411953975
H           45.90990890822469        1.16911045853056        2.57539808211990
H           47.83477186302996        2.02982842613014        4.22912919488427
H           49.65698346343893        0.45193823505861        0.76558506375489
H           53.15604082135798        2.01012523467464        4.07639445989528
H           54.98512365357495        1.19248224225333        2.27495751610689
H           54.82050333692855       -0.88963311141631       -2.57204717050129
H           52.88890586725076       -1.62460700962177       -4.27210602358419
H           50.83449840484261        1.00111292947721       -4.47294982007452
H           49.69026123790981        2.10844134908569       -5.27520329015422
H           49.13966943274253        1.10087165023286       -3.91296275776083
H           49.35946059903571       -1.25701050898359       -7.78746285041102
H           49.95959891578272       -3.65906564277834       -7.96212421168437
H           50.73534429475603       -4.88654107926544       -5.97489455694947
H           51.61273528740064       -5.37661888060893       -2.48409220685950
H           50.50223180713029       -5.79432389229428       -3.81557284317776
H           52.19028393582877       -5.31883009421100       -4.17021657690242
H           47.56364159078738       -1.77958550627532       -4.02785100661412
H           45.75083579865969       -1.06525759875017       -2.16356135833486
H           51.08538426398243       -0.21431221329850       -0.72622618289535
H           51.61048594170906        3.84357995712163        2.09804195592921
H           50.81927593731888        5.43989628401926        2.13388049056811
H           49.83429786078686        3.96080214182310        2.27038784323284
H           51.01695384902533        5.00277325699646        6.36552612146842
H           50.72417713147929        3.37792343898614        8.21702281695971
H           50.29351665230695        1.00438049071002        7.72201731859571
H           49.10881373875917       -0.82092376889034        6.83020322384533
H           49.82870091858117       -1.94017546458687        5.64330533795805
H           50.87609836124015       -1.09950749927196        6.81670424124785
C           86.54502870326969       -0.06991343098604       -0.00279919006347
C           85.97377012395557       -0.48837351836327       -1.19754366037326
C           86.65515064025703       -0.92245700949740       -2.36997846612555
C           85.71576995416922       -1.22683136934651       -3.31450740457616
C           84.43037548725496       -0.99762238956503       -2.74645936713921
N           84.63678358370890       -0.54828957818259       -1.47246294589136
C           83.18767268796280       -1.18177734634431       -3.35803140548058
C           81.94775592273115       -0.98723136324021       -2.74762516943156
C           80.68152295000326       -1.25957352034694       -3.40230731820440
C           79.71698446214033       -0.94504965017537       -2.51210988612654
N           81.73218335751018       -0.51473480098715       -1.48873773336459
C           80.39442600252488       -0.47981428770271       -1.31779513982846
C           79.70793248731079       -0.03090174814189       -0.17143701572416
C           80.30691424730500        0.45227423132285        1.00708660196571
C           79.63485321441034        0.92446122076707        2.16554848275644
C           80.58000310998857        1.30417721436041        3.07786647548419
C           81.86017679538523        1.06282554457660        2.50837448467695
C           83.10280279259263        1.30571887391974        3.10116548038736
C           83.08651916590273        1.83469032753723        4.49805920558486
C           83.39061843215929        3.15133068104854        4.85641118857823
O           83.69593421024490        4.16654465613146        4.00761664474527
C           83.47998878284560        4.12288498589495        2.60952817103421
C           83.40104319732539        3.52311872142835        6.20784499482703
C           83.10333994124943        2.60286530620065        7.19104815944041
C           82.77824085138667        1.29295197713883        6.85820952704724
C           82.77136319508575        0.91653294244980        5.52046198202789
O           82.47798541738530       -0.34363681660652        5.09764950886500
C           82.17146086168219       -1.35829442659714        6.03213185124108
C           84.34265238399242        1.01880529069720        2.52488673509703
C           85.61584695243401        1.20513472898489        3.20304497168038
C           86.57128474488034        0.81260034598423        2.33622056322759
C           85.88297734364755        0.39085137743433        1.12857560357534
N           84.54293256587623        0.52823116894272        1.27743586472628
N           81.64418538370560        0.55374921765406        1.25514252729984
C           83.20849616993952       -1.72392079841812       -4.75177821092066
C           83.08639096406716       -0.96275491150664       -5.91729745115742
O           82.95695948208312        0.38616109593602       -5.99697977035657
C           82.86014344417420        1.24902193413847       -4.88038626022426
C           83.11295396708375       -1.59562566017186       -7.16847746134228
C           83.26000525335657       -2.96341748671843       -7.26187115344721
C           83.38926696366549       -3.74056091123965       -6.11649576617833
C           83.36518393391066       -3.11973076578651       -4.87369420541703
O           83.48661230650876       -3.79149586071573       -3.69598424057399
C           83.61691583081587       -5.19852560900573       -3.68671051290755
H           87.62885742875602       -0.10250245236691        0.04063472561920
H           87.72756568047672       -0.98486494848902       -2.46535896161913
H           85.88589140667386       -1.58353572087088       -4.31762993552731
H           83.89808351642485       -0.31469413457251       -0.81785900960184
H           80.57348931857098       -1.64565470072979       -4.40322880760600
H           78.64735416726828       -1.00794544886966       -2.63160537522457
H           78.56398099533236        0.96238406748465        2.28034208817309
H           80.41344171187582        1.70895472709538        4.06289081604404
H           82.48308363145360        3.74002589534912        2.36699914313919
H           83.56195954957944        5.15515537268882        2.25998484478165
H           84.23734026950808        3.51381427108530        2.10445291619256
H           83.64606999420263        4.54858724985460        6.45397922945210
H           83.11534039601376        2.90220308729374        8.23299037692509
H           82.54049218379022        0.58315292523732        7.63894361282915
H           81.98682582199430       -2.26244493657027        5.44893702989077
H           83.00717031761600       -1.53748705072714        6.71937180296551
H           81.27227152365505       -1.11391898402610        6.61084732869544
H           85.73119547514700        1.57795177858447        4.20825141096967
H           87.64155159274840        0.79701726123577        2.47149395906313
H           82.37902164850554        0.27158998378249        0.61508135219518
H           81.94850718033304        1.05905412563519       -4.30366437844095
H           82.82010601606768        2.26168453333895       -5.28896822296744
H           83.73226719364588        1.16278232786975       -4.22350412397200
H           83.01610586030921       -0.97974046692844       -8.05365699750070
H           83.27743260184718       -3.43961292849834       -8.23566703487259
H           83.50668656176808       -4.81219324598570       -6.20369723566519
H           84.52788513499888       -5.52168351260498       -4.20522738946727
H           83.67994749307384       -5.49084081248171       -2.63681329590109
H           82.74729250495488       -5.68544169486511       -4.14442316975778
C           55.20067244863700        0.13922822951609       -0.12887462723863
C           56.41604787193913        0.12524181951634       -0.17933183405965
C           66.13233995655024        0.01999695895507       -0.35465542536032
C           67.35024626577670       -0.00448832157462       -0.34479268160839
C           77.08173917128393       -0.04654950152538       -0.21261494162280
C           78.29901065332534       -0.04652879433665       -0.19762337636882
C           57.82416858287009        0.12473229540428       -0.23424793832763
C           58.47652305649071        1.21876779126360        0.36220622880759
C           57.86078618168750        2.32863625720265        0.99831218038403
C           58.84897748330315        3.18798848621651        1.39280066768229
C           60.09738605820450        2.62795863248261        1.00740878977455
N           59.82200785523808        1.43404738215412        0.39762396903833
C           61.36587689249959        3.18109229590040        1.20837952100492
C           62.58054543198051        2.58920365842594        0.86663716139066
C           63.86836111905897        3.22816426522791        1.06497867660362
C           64.79992557990877        2.35253617982718        0.63513088217515
N           62.75118647035138        1.35809888074106        0.30839878502606
C           64.08079570289571        1.18304355724465        0.16939206242823
C           64.72491507154675        0.04520912701181       -0.35931203127767
C           64.07059784192599       -1.07311194878870       -0.91152041777061
C           64.68158905111392       -2.22457723040141       -1.47150554987202
C           63.69031050509598       -3.04717982793666       -1.93217106275313
C           62.44276470213190       -2.42608131078846       -1.65503926032118
C           61.17362134253811       -2.91980088997147       -1.97484386830483
C           61.13536692326792       -4.26070282127015       -2.63528441679689
C           61.31282696535376       -5.37777486465889       -1.79377450568486
O           61.52534204319435       -5.08476248672960       -0.48175732055735
C           61.68168673902834       -6.12080753728234        0.46630543112799
C           61.26181410948121       -6.67416250863073       -2.29146867586700
C           61.03064414476567       -6.86829221412384       -3.64843790155073
C           60.86416412021383       -5.79098958081196       -4.49318288453143
C           60.91841692790266       -4.48033070722386       -3.99822567029285
O           60.74369624638747       -3.53014839280196       -4.95202339468187
C           60.94901876592368       -2.14572126433640       -4.74285807948134
C           59.95666411480185       -2.31887293237810       -1.65571547740382
C           58.66537786750508       -2.91344578354676       -1.95010731876172
C           57.73493051065459       -2.06484436863825       -1.46479773663970
C           58.45927653455927       -0.95369945824191       -0.87958647430589
N           59.78959751196950       -1.12906208004611       -1.01521295889804
N           62.72273177899704       -1.23628052163999       -1.03728738568614
C           61.39902168474495        4.53143929744223        1.84022116813730
C           60.94507862988036        5.65139763631339        1.13085573679681
O           60.49452658073440        5.41268719457361       -0.12963407327207
C           60.02404320116669        6.47507572519506       -0.93460864859529
C           60.98016895013316        6.91731325810701        1.71424194091698
C           61.46190998048250        7.05650325257501        3.00712518309671
C           61.90959900126153        5.96176202910341        3.73083056642862
C           61.87988912258766        4.69603421728019        3.14591873443268
O           62.28525293379547        3.56308872346221        3.77641833779606
C           62.79281659557994        3.61927958798823        5.09427179270090
H           56.79733349940290        2.44836497915913        1.12878635663794
H           58.72874721620848        4.12821999284373        1.90580645984524
H           60.52083189913286        0.80332552240476        0.01980432345846
H           64.01504868770039        4.21471410802547        1.47414092847935
H           65.87094576430385        2.47138095673697        0.60835123953051
H           65.74437852300932       -2.39645283969566       -1.51287912975696
H           63.80585666190377       -4.00241582239906       -2.41796562988695
H           61.81477626602237       -5.63055181081570        1.43256685832016
H           62.56469133162562       -6.73443255098648        0.24973835458823
H           60.79452986625411       -6.76427780892070        0.50828469322308
H           61.39610756118690       -7.52775897784330       -1.64093268475112
H           60.98671174945883       -7.87676109678631       -4.04400193281561
H           60.69098160849210       -5.92995956950456       -5.55285140140560
H           60.92622489221687       -1.68642928609687       -5.73416550638201
H           60.15438354274843       -1.70929799892923       -4.12830425548636
H           61.92053124431190       -1.94722236863307       -4.27814142682386
H           58.51860269585491       -3.85753776348450       -2.44972848732541
H           56.66106048650023       -2.16280367416476       -1.48162729244528
H           62.02569232766119       -0.57796562953530       -0.70570477141139
H           60.80892447660710        7.21901342241535       -1.11684388891640
H           59.15520192109719        6.96786599517356       -0.48170218084475
H           59.72694740462585        6.02738972858454       -1.88482502592591
H           60.63703219958842        7.78897845785343        1.17330357839370
H           61.48758697956561        8.04079612627434        3.46160357940956
H           62.27572037828922        6.09973956869652        4.73934168952457
H           63.69008685641715        4.24720934600969        5.15273436414594
H           63.05464190000222        2.59417289214940        5.36266560554818
H           62.04071751453310        3.99514899397809        5.79856549877759
C           68.75775095742813       -0.01053124488069       -0.33057056858353
C           69.38390658899378        0.87890734921635        0.56421266400055
C           68.74152477676341        1.74426217794961        1.48705994694272
C           69.70978327615724        2.44370782392394        2.15318930596588
C           70.97359761697204        2.02471831725715        1.65654852715947
N           70.72626749883514        1.07055338736598        0.70660412080177
C           72.22943342817595        2.49035328124767        2.06086845310239
C           73.46198281796937        2.02322021881315        1.60770668844513
C           74.73567002043185        2.57764939072850        2.02928774530174
C           75.69088738055183        1.86746858653326        1.39524254593722
N           73.66475074348041        1.00837372269858        0.72228287567996
C           75.00037271596540        0.88401071960300        0.58391005768105
C           75.67345486614332       -0.04565096147944       -0.23366526335559
C           75.05146570435761       -0.97392863948885       -1.08974897794764
C           75.69339076168889       -1.92066366313087       -1.92946570639725
C           74.72426753294620       -2.60282454231239       -2.61317097275397
C           73.46110939858789       -2.09724124251371       -2.20313422878380
C           72.20645613993635       -2.49397067284885       -2.67704791526386
C           72.20259548644701       -3.60405572546737       -3.67922413954210
C           72.35305691446769       -4.90822503219859       -3.16535830034038
O           72.50925597132129       -4.98239329334923       -1.81509429069679
C           72.63693242274717       -6.23736550409367       -1.17849346087304
C           72.33343902110363       -6.02114183303009       -3.99702189153909
C           72.16337083685490       -5.83912543530942       -5.36471351706588
C           72.02473887292865       -4.57261622196650       -5.89205284517623
C           72.04559090529759       -3.44492004744399       -5.05878381910843
O           71.91050251153257       -2.27306258807031       -5.72995312462475
C           72.00235173283214       -0.99333010517409       -5.13358204512620
C           70.97350606831331       -2.00601168263401       -2.24638864637010
C           69.70198617710550       -2.48764520305517       -2.75397528394646
C           68.74482894158268       -1.79205960647385       -2.10493021413137
C           69.43137627914490       -0.89299312096785       -1.19985521802999
N           70.76765669473532       -1.03590093581829       -1.31237454463005
N           73.70910652521933       -1.11652000197011       -1.28011301226209
C           72.22598311038298        3.59313053880427        3.06394681472227
C           71.75134016767274        4.86412918337516        2.71181589604177
O           71.31857442494125        5.00189770626427        1.43034679573296
C           70.82225256897547        6.24293409642530        0.97052946496732
C           71.75080419952531        5.90035619702110        3.64465792082037
C           72.21966282355355        5.66035175117430        4.92743862343583
C           72.68893482404850        4.41003555067426        5.30043779192268
C           72.69347010206015        3.37410242524945        4.36684056844951
O           73.11951877114248        2.11343648119241        4.64087341530222
C           73.64267632127280        1.79418407502975        5.91431180602125
H           67.67518182184978        1.81051331260492        1.62652716505164
H           69.56532940926708        3.18221756772663        2.92471274676137
H           71.44127137653327        0.57500376991831        0.18490522618965
H           74.85812560789545        3.40167738396046        2.71340338541699
H           76.76119043220335        1.98768376158101        1.44431033101831
H           76.76027464199740       -2.05820187673280       -1.99579094926515
H           74.86466159669766       -3.38933820262104       -3.33675722339579
H           72.73224546780297       -6.02833151868606       -0.11126801925767
H           73.53055012423648       -6.77338095733442       -1.52100606067709
H           71.75241321563063       -6.86414167495296       -1.34491615529737
H           72.44550953432045       -7.01970257579039       -3.59683732309262
H           72.14405563699955       -6.70234584292876       -6.02034188195765
H           71.89829989496079       -4.41830373352619       -6.95619889436855
H           72.00499240117894       -0.27828023152815       -5.95989068669137
H           71.14269061362660       -0.78883342652940       -4.48637459952447
H           72.92743272753201       -0.87954186694588       -4.55874625147977
H           69.58430706534186       -3.25671856338195       -3.50030491167811
H           67.67480901055823       -1.86191287804293       -2.21376593924258
H           72.99546161877831       -0.58154461656359       -0.79667759227076
H           71.58485495168011        7.02858675247250        1.03199438841481
H           69.93443392198958        6.55397876495445        1.53440069279441
H           70.54748998492971        6.09103107530630       -0.07495661686828
H           71.39048927783406        6.88569732568943        3.38112252093771
H           72.21792757826861        6.46592525769330        5.65344007720363
H           73.04466327362998        4.25041393937279        6.30948087072174
H           74.52745770281923        2.39873438642043        6.14771693247564
H           73.92919649298008        0.74183828162691        5.86943906959575
H           72.89253972845084        1.92968836115664        6.70289833720707
