298
 energy: -529.597339196752 gnorm: 0.000817342267 xtb: 6.5.1 (b24c23e)
Ni          46.76248054922061        0.17864512635319       -0.14422758554180
C           43.39606874144945        0.50011010162432       -0.44395483283565
C           44.03894651088746        1.27706399067920        0.49715604723553
C           43.35469471742348        2.18179157818956        1.37038917069076
C           44.28843903021080        2.69665962557638        2.20362549551679
C           45.54666620180171        2.12650188298640        1.82144228258841
N           45.38239091219859        1.25335359917366        0.77497453516108
C           46.75165605187581        2.43118622450614        2.43782780067235
C           47.96574906305756        1.91337166821261        2.01165011379714
C           49.22641111985119        2.30045989042927        2.56832492537885
C           50.18345283104666        1.67014157877270        1.84693524002867
N           48.14969492512717        1.03779286832324        0.96536435132525
C           49.50549435355611        0.88982424814579        0.86044544401702
C           50.17444250979349        0.08796607972573       -0.06726008010331
C           49.50433201398884       -0.73709946002294       -0.97365545365186
C           50.18110321588370       -1.64347815583072       -1.84701877124566
C           49.22233147463517       -2.34176683563789       -2.50042113924703
C           47.96180941192089       -1.84146702361749       -2.04329219176710
C           46.73901755007190       -2.30451096890889       -2.50396418005659
C           46.71992554570690       -3.41452438976495       -3.49759165800755
C           47.11967985875783       -3.19278542812672       -4.82155849267291
O           47.50969754156792       -1.92512036704986       -5.11878851781119
C           47.93937173344428       -1.59529483685043       -6.42404012826886
C           47.09401463199379       -4.23424641957888       -5.74869327791382
C           46.67149311293925       -5.49231358530068       -5.34641625308575
C           46.27078763978527       -5.73479295680999       -4.04117791978777
C           46.29196670579788       -4.69228475503488       -3.11507283088782
O           45.92167660029707       -4.82797099165807       -1.81459279801766
C           45.48818232642802       -6.07871424215138       -1.32001898332103
C           45.52891345484806       -1.75351303130229       -2.10885168433630
C           44.26486134537776       -2.13685212562563       -2.66516793100803
C           43.33297292859935       -1.32033328705937       -2.12053755726642
C           44.02610775846063       -0.45248956631584       -1.21744657869896
N           45.37089347632089       -0.72431862478645       -1.21497713628215
N           48.14783776239050       -0.85344398637731       -1.10228170430720
C           46.75143256563216        3.38476869039249        3.58204548341012
C           47.03136081070501        2.93082854548807        4.87774746382792
O           47.27904256923591        1.60011074821102        4.99882330005159
C           47.59585672538842        1.04211688085390        6.25789569564226
C           47.03648240033174        3.82091463754935        5.95125614783125
C           46.76767381509959        5.16210853915878        5.72359727067407
C           46.49272461402595        5.63506830303082        4.44942917625313
C           46.48357017033175        4.74449918471964        3.37628517082244
O           46.23420941274621        5.11344663362282        2.09185711347138
C           45.97040159374022        6.46463699802814        1.77301576537839
H           42.32407657669552        0.61722921349973       -0.55390896029015
H           42.29312510868345        2.37113492807439        1.34335922240694
H           44.15312638426703        3.40418954279743        3.00537659446875
H           49.35047848362038        2.97907747417666        3.39640421211656
H           51.25461180496723        1.71552895787136        1.96116978164199
H           51.25276677992933       -1.73259184865307       -1.92516699191853
H           49.34488315898155       -3.12245940060431       -3.23323580494531
H           47.14293600374172       -1.75332937366705       -7.16142094841695
H           48.19950271132930       -0.53543421961498       -6.39928039440943
H           48.82301700358141       -2.17625967552279       -6.71487124273420
H           47.39777749207752       -4.07345487362465       -6.77444396972608
H           46.65318292384904       -6.30238828891642       -6.06726193164188
H           45.94584607828477       -6.72631335951379       -3.75553334069778
H           45.25795549818593       -5.92444788401099       -0.26421974541842
H           44.58575072590613       -6.42516038403503       -1.83830844357100
H           46.27248768442205       -6.84011009932029       -1.41001496062517
H           44.12702461594971       -2.92272101586200       -3.39020579923076
H           42.26887102723207       -1.29596532129653       -2.29546030251414
H           47.76363758890987       -0.02244210667675        6.08457980047801
H           46.77195276941701        1.16537650156222        6.97129456994264
H           48.50701604611306        1.48683604250905        6.67625524407127
H           47.24738679354661        3.47960147102221        6.95588633345308
H           46.77339037435960        5.85471395858606        6.55810105184251
H           46.28928518589652        6.68708271585625        4.30062975576655
H           46.81557819468754        7.11209146097107        2.03619019040552
H           45.81682719291866        6.49731837306745        0.69277249407715
H           45.06571771533913        6.82725329758854        2.27611851756720
Ni          87.09289596988626        0.06108935418626       -0.14063187458397
C           90.46672405893578        0.38222164286763       -0.36670618389590
C           89.83528122580408       -0.45699193827339       -1.26112755028448
C           90.53109532527355       -1.22071695508273       -2.25199994371167
C           89.59226421438619       -1.91573261541613       -2.93541196793467
C           88.32201690006004       -1.55893069639732       -2.37572519052046
N           88.48349917083536       -0.67946788716542       -1.33399650850062
C           87.10758446548478       -2.01474303452508       -2.86680857181232
C           85.88748429836346       -1.62388428731708       -2.33606207607534
C           84.62578030877049       -2.00381283890978       -2.89459802918687
C           83.66886699995510       -1.43122904170126       -2.12603826999045
N           85.70442894559000       -0.81816206748173       -1.23502641382709
C           84.34793871854367       -0.71347267438181       -1.09384152506926
C           83.68022847611434       -0.06521901967675       -0.05161559780605
C           84.35355291650414        0.57836764808886        0.99028712274393
C           83.68198090209492        1.16217063088196        2.10825743572674
C           84.64011160021202        1.70561645679207        2.89611925269196
C           85.89309466939764        1.46911423716343        2.24636354846880
C           87.10435017611567        1.95105842010263        2.71763406729114
C           87.11386603863819        2.76169797377952        3.96733134736480
C           86.58294508222133        4.05830020780035        3.97363138951907
O           86.08389507413476        4.50031039730167        2.78948818791491
C           85.50429793740922        5.78545084993343        2.69064074848887
C           86.59699336375344        4.81960682156053        5.14192139700308
C           87.13834982618377        4.27950652090275        6.29874041232836
C           87.66949114408915        2.99866971398437        6.31590991230403
C           87.66063513280123        2.23907055025112        5.14629139786340
O           88.15406004246275        0.97553585010145        5.06173328397609
C           88.71703180917778        0.34926418729633        6.19652024637457
C           88.30639046065350        1.73925426924051        2.05839226929244
C           89.55454900945909        2.30122413202341        2.48287392416227
C           90.49304058291101        1.88194490772332        1.60248630233866
C           89.81843472578450        1.05727014605007        0.64636768753559
N           88.47580401769335        0.98896070091479        0.92210610067599
N           85.70626738541853        0.75258361450695        1.08503502537631
C           87.10879197401688       -2.93978107567785       -4.03434066727757
C           86.74311078730786       -4.28232308771654       -3.87024773363321
O           86.41211468018095       -4.65618061083086       -2.60660719409538
C           86.01251005569318       -5.98400406686489       -2.33377861676893
C           86.74213710893774       -5.15092345998043       -4.96132593738038
C           87.09977887745417       -4.67142576484169       -6.21230847336108
C           87.46016651068292       -3.34547293855576       -6.39948247098241
C           87.46649113680094       -2.47788527894290       -5.30767557421411
O           87.79669197131444       -1.16180314878222       -5.39093350377685
C           88.15521958587956       -0.59098407247993       -6.63277511216994
H           91.54160552583029        0.49637894646901       -0.44784928132536
H           91.60155631848825       -1.21741749653335       -2.38485236573898
H           89.73085771715920       -2.60409018016102       -3.75330340764036
H           84.50212850495400       -2.62472665608209       -3.76695296556794
H           82.59703132776289       -1.48762690221523       -2.22875830606548
H           82.61446989761696        1.14384118056552        2.25867397328220
H           84.52139641020419        2.22955992282859        3.83051556984309
H           86.23323197093055        6.57374074287236        2.91485708441199
H           85.17114216040784        5.88932683565869        1.65633256245609
H           84.64112416524395        5.88899871921511        3.35927313265029
H           86.19332109530997        5.82315773934774        5.15661767643724
H           87.14747827704868        4.87105029029078        7.20766774613536
H           88.08506005045368        2.60297990731348        7.23296895113070
H           89.03474452185705       -0.64260189172592        5.86969129439044
H           89.58821348140006        0.90131224958745        6.56982840960822
H           87.98174380847655        0.24411750227754        7.00355757355357
H           89.67927065373665        2.93675931770875        3.34469206159436
H           91.55065948369210        2.09351433558905        1.58831991483340
H           85.79043077098390       -6.02076188955720       -1.26566461973046
H           86.81273524971034       -6.69918530910369       -2.56003279357587
H           85.11254739632938       -6.25656494036673       -2.89830612777204
H           86.46630890312346       -6.19041707091352       -4.84456197480503
H           87.09694394474286       -5.34637812211622       -7.06118222596382
H           87.73165356195850       -2.99825207503765       -7.38742317035535
H           87.33832367882191       -0.66646724788818       -7.36061696613356
H           88.36201491409182        0.46237231669265       -6.43447689484434
H           89.05463471670311       -1.06232100835467       -7.04734916043124
C           52.80319297597817        0.07018879387010       -0.05283057965518
C           51.58208280691193        0.07779746545673       -0.05859298331598
C           54.15511049234230        0.05770696472483       -0.04225149644109
C           55.37627958105398        0.04735022770764       -0.03339392356047
C           66.26155624174415       -0.00743024979311       -0.01092369088502
C           65.03965322672040       -0.00375909386694       -0.01129277678424
C           67.61214368443594       -0.01147328762375       -0.01016757747364
C           68.83408152057999       -0.01734663597635       -0.01233751119205
C           79.70158557193447       -0.08202230972826       -0.01338906633926
C           78.47999941518292       -0.07357002250597       -0.00206166037223
C           81.05253752060250       -0.08124027659731       -0.02114137721809
C           82.27407343253675       -0.08206934506028       -0.03445394269720
Ni          60.20828555646682        0.00949646427143       -0.02092309089158
C           56.78354360032434        0.03271396134520       -0.02797866850960
C           57.45033434619955        0.00477880146204        1.19894668007023
C           56.76719477675601       -0.03917361533018        2.45285815718213
C           57.72109095750402       -0.03933444187594        3.41415002386521
C           58.98373961248605        0.01305052512628        2.74333559961230
N           58.80609862935690        0.02518735835502        1.37827801214336
C           60.20117865105744        0.05403038438057        3.40565973906260
C           61.42087076433156        0.08346349998831        2.74689160940010
C           62.68022242696438        0.16236358643725        3.42110259388368
C           63.63803669491733        0.14763312078253        2.46369639586414
N           61.60458142587111        0.03883314820220        1.38310987236326
C           62.96057983584096        0.06527457558127        1.20882100330834
C           63.63398553699531       -0.00038407162173       -0.01402037799209
C           62.96555441820742       -0.06432872793900       -1.23972513256969
C           63.64779991527008       -0.15180802782627       -2.49175223845819
C           62.69378152167612       -0.16565364557347       -3.45299089871293
C           61.43220311824839       -0.08096495171386       -2.78386161540483
C           60.21534983011252       -0.04778564608893       -3.44699271247319
C           60.21652134414501       -0.06690954880126       -4.93652854732531
C           59.77340632564783       -1.20009015780945       -5.63096069222321
O           59.37068220803584       -2.24632557968940       -4.86291846292189
C           58.90473893027523       -3.43797032691855       -5.46285801638375
C           59.77097686311467       -1.21545940081292       -7.02543458448358
C           60.20770247063668       -0.09649346256169       -7.71836812446943
C           60.64968828139856        1.03652167309893       -7.05218595258875
C           60.65612253572439        1.05095524838765       -5.65769683477795
O           61.06317254977774        2.11336715196867       -4.91484604688674
C           61.51637035844549        3.29552135030288       -5.54294263688224
C           58.99585900456678        0.00630035839405       -2.78955004481937
C           57.73692650786755        0.06994538554106       -3.46625954120689
C           56.77921465786819        0.09108009873907       -2.50906764959228
C           57.45641967535207        0.04594021393216       -1.25194990938637
N           58.81246469457781        0.00481671496594       -1.42528959636539
N           61.61049633985629       -0.03301390395809       -1.41940155538718
C           60.20045512741918        0.06895946790789        4.89515088549151
C           60.64975190500771       -1.04699002052299        5.61371243531619
O           61.05812185182656       -2.10715960369383        4.86845724204332
C           61.54650905345213       -3.27706135337525        5.49312396127883
C           60.65125200584825       -1.03318467279958        7.00817427512476
C           60.20813476428184        0.09754999322942        7.67746695279957
C           59.76083641904587        1.21409571601844        6.98744344427138
C           59.75465715357817        1.19911215898039        5.59296330584766
O           59.34232934821009        2.24423148183353        4.82834511723601
C           58.87293381367950        3.43250366646512        5.43215098521683
H           55.69525444171255       -0.06893212588798        2.56484033161276
H           57.59366433456309       -0.07046550793345        4.48386988165908
H           62.80325594930559        0.22104877708374        4.49018847541331
H           64.70917464520996        0.18904443936114        2.57950294580019
H           64.71926590589426       -0.19707675911258       -2.60300171995431
H           62.82027007016637       -0.22683353545825       -4.52156594896278
H           58.01276807596437       -3.25741834773179       -6.07505991751759
H           58.64621360524106       -4.10991355740473       -4.64240197816752
H           59.68001958784149       -3.90635070874606       -6.08130272303947
H           59.43291956404320       -2.08591420503947       -7.57155904475071
H           60.20336266797970       -0.10764875948646       -8.80280390021554
H           60.98362168376954        1.89535246372721       -7.61886502820626
H           61.77490327360031        3.98659156631267       -4.73854759373787
H           60.73360856646202        3.74476339471535       -6.16611100886144
H           62.40582042789798        3.10863839592222       -6.15688663764231
H           57.61433853549495        0.09459829904524       -4.53672247872963
H           55.70833469523026        0.13474692089293       -2.62623364823096
H           60.78205083465513       -3.74429873857647        6.12564794267573
H           61.81275014896088       -3.96294738185163        4.68683043404188
H           62.43791005631413       -3.06737968915041        6.09670273763980
H           60.99294470556676       -1.89053739305463        7.57248453508997
H           60.21163973361983        0.10886024986308        8.76189745695834
H           59.42268181447006        2.08307862056159        7.53584700192152
H           59.65027388503734        3.90684630805205        6.04340942935822
H           57.98788486191894        3.24565704526532        6.05241440966722
H           58.60198839372379        4.10226267110897        4.61389683578572
Ni          73.65723622366660       -0.02725974341786       -0.00583932487709
C           70.23933683812209       -0.01972447106670       -0.01066784297063
C           70.91069111727236       -0.15357495798228        1.20847725541574
C           70.23872681525107       -0.31884484229232        2.45819988906481
C           71.19414479362240       -0.29601838651938        3.41865105425128
C           72.44617823567461       -0.11041274909120        2.75199454600663
N           72.26294357430541       -0.06150130352183        1.38837348017363
C           73.65379955342907        0.06440721015724        3.41153684990012
C           74.86300168098336        0.20162390661689        2.74571308457323
C           76.11417924227632        0.42141960892929        3.40359386193166
C           77.07184039884643        0.38552047188699        2.44571654937589
N           75.04873774112009        0.07518239420401        1.38770006429698
C           76.40201790312821        0.15079944321299        1.20606779342854
C           77.07439385058480       -0.06298618122327       -0.00065908125491
C           76.40076610609366       -0.25757404932816       -1.21006577577710
C           77.06970405528975       -0.49295510386282       -2.45018279005424
C           76.11529848578431       -0.49344678550805       -3.41191409536845
C           74.86697545223615       -0.25467746341396       -2.75540764109728
C           73.66324958650688       -0.08565804149651       -3.42377286084504
C           73.67135487921469       -0.09156872552775       -4.91259645759653
C           73.08535470029210       -1.14756042155275       -5.62316000223162
O           72.53798343861953       -2.13775726677560       -4.87072751193561
C           71.91791951749268       -3.24771419812665       -5.48781034186352
C           73.09604863217058       -1.14984453383465       -7.01768600966316
C           73.68899895286704       -0.09511181299724       -7.69503405704878
C           74.27400305739953        0.96114480694783       -7.01309755712904
C           74.26750507304314        0.96208971620145       -5.61860289500876
O           74.80671552700112        1.95313465600847       -4.86163190927616
C           75.43176696963224        3.06362542068693       -5.47251876570923
C           72.45479521461819        0.08988379022388       -2.76634235481366
C           71.20558280377671        0.28786771742467       -3.43473678984909
C           70.24678080964384        0.29810002716204       -2.47742990867102
C           70.91428363781122        0.11698494898550       -1.22752051024991
N           72.26680935483894        0.02366138780337       -1.40402233080400
N           75.05022372391326       -0.14981440852315       -1.39532364406107
C           73.65250179756408        0.10466496430743        4.89987726538884
C           74.23282119735548       -0.93612869360824        5.63742623946177
O           74.76712458772568       -1.95251512100802        4.91095163573872
C           75.38142730377368       -3.04942302498830        5.55641608340193
C           74.22933544735589       -0.89911135874261        7.03144592357881
C           73.65049570568843        0.18024403448647        7.68169850188698
C           73.07213152570205        1.22231752046187        6.97296024578438
C           73.07053855194812        1.18356366800601        5.57892902168726
O           72.53643749993404        2.15843695176594        4.79759948538068
C           71.91344656001559        3.28444764033320        5.38176780189849
H           69.17214313989676       -0.43108363055536        2.56946766836401
H           71.07345802990308       -0.38869159855540        4.48570774246897
H           76.23271193261812        0.57436441489383        4.46393273289417
H           78.13861637614472        0.50024387247370        2.55269910953325
H           78.13396147353188       -0.63043496027446       -2.55512277946167
H           76.23406948589692       -0.63595644154074       -4.47370348788160
H           71.06428859259358       -2.93972719161937       -6.10373279786497
H           71.56292603509817       -3.88648091887183       -4.67700077372172
H           72.62665718759861       -3.81148169203861       -6.10648002854291
H           72.64908147845459       -1.96151569422794       -7.57593960268452
H           73.69555637462484       -0.09632250488142       -8.77951223348464
H           74.72818727952570        1.77141397395343       -7.56757520928970
H           75.77782756262621        3.70276110025430       -4.65811148831862
H           74.72866162879811        3.62658456958521       -6.09825935397763
H           76.29199696527024        2.75675678631336       -6.07973220805255
H           71.08882513413660        0.39460067055761       -4.50089530186316
H           69.18075041680915        0.41340542275549       -2.59087489118539
H           74.66990650144966       -3.59282571430222        6.18996480790490
H           75.73227429926877       -3.71113429113394        4.76235725228216
H           76.23725242783814       -2.73047871970864        6.16365635709346
H           74.67100241515594       -1.69921640240651        7.61020402366999
H           73.65003046847266        0.20992687515207        8.76578979585766
H           72.62953238585231        2.05266031410764        7.50670205404027
H           72.61845345662000        3.86308606110254        5.99092108400175
H           71.05511646193501        2.99305337239326        5.99924516821186
H           71.56493224553630        3.90271450483730        4.55245161836434
