508
 energy: -843.642953582222 gnorm: 0.000974078707 xtb: 6.5.1 (b24c23e)
C           88.44255040027024        0.06206037003541        0.03951492046851
C           89.04732219135583        1.23851678789236        0.46238644145774
C           88.39056845124249        2.41825427940776        0.91227907155975
C           89.34902790974914        3.33961414887655        1.22826325266668
C           90.62288842347174        2.75672742735452        0.97159270863622
N           90.38946249481158        1.48756282513297        0.52178629665656
C           91.88313179097904        3.33665283131079        1.15278723292830
C           91.91242307315531        4.74250379530181        1.62585514504025
C           91.36450628697078        5.73745159465617        0.91200370613358
C           91.36664644681457        7.16896046637705        1.38198308983645
N           92.32853945005465        7.36960022971331        2.46892467487008
C           92.71215224033574        6.32326072652388        3.26614241865089
C           92.56635734400915        5.03978486700517        2.89202472848852
C           93.10014692504880        2.69053018395257        0.92075380282559
C           94.39547612061739        3.32954527187602        1.06778107383601
C           95.31958125218267        2.39947992483391        0.75038472441127
N           93.25876851403024        1.40327657881035        0.50763876811442
C           94.58769185227035        1.19632520661934        0.40345389517790
C           95.22790196464237        0.00029371579080        0.02355120371700
C           94.59718539124954       -1.19868234724364       -0.35839656478816
C           95.24660990905323       -2.41040428042728       -0.71460295755163
C           94.28331842633676       -3.32991134572656       -1.02498844483079
C           93.01461962489070       -2.70478888830807       -0.87546267467739
N           93.25651893668930       -1.41986039393289       -0.46526171424266
C           91.75548025748287       -3.28059102122059       -1.07734302517530
C           91.73256022486470       -4.69083196655407       -1.53430301288025
C           91.14870450394245       -5.65584195221062       -0.80785622908949
C           91.09885201605432       -7.09180133114443       -1.26024691865571
N           92.06729953897978       -7.34443729213407       -2.33072301280052
C           92.48612393270314       -6.32457174560370       -3.14527567535305
C           92.38095793606385       -5.03100261611659       -2.79322981197459
C           90.53716648109200       -2.62221495985284       -0.87911212438408
C           89.23465478592495       -3.20873074716581       -1.15328243024126
C           88.31819387816770       -2.27192491462057       -0.83553927001011
C           89.05960416527620       -1.10991762159458       -0.37923607698463
N           90.39199981776048       -1.35332738186714       -0.42768604041579
H           87.35708598006774        0.06804577763137        0.03896561883091
H           87.32065397617509        2.53179831823697        0.98632996975299
H           89.19388141550708        4.33415898190110        1.61392325556595
H           91.11779825946829        0.82714637935634        0.27150965234832
H           90.87951878193489        5.55734323890726       -0.04043135672694
H           90.35305419815924        7.46317066838424        1.71361504686658
H           91.64353283522318        7.83789723450324        0.55571900921911
H           92.25686411425310        8.27135776245048        2.91731980514572
H           93.21636201939693        6.61168853426434        4.18295404741816
H           92.92021371809795        4.22830748758000        3.51179890955980
H           94.55304790545473        4.35374841143558        1.36494592537276
H           96.39367043582138        2.49421138905828        0.73794340247319
H           96.31535371486083       -2.55198767851495       -0.72393541628149
H           94.43430233998946       -4.35368802490300       -1.32639070800522
H           92.53157393550813       -0.73972870454946       -0.26152279229951
H           90.66768515947334       -5.44456338976768        0.14000962670021
H           90.07889775372234       -7.34871166403589       -1.60285140229511
H           91.33741217714237       -7.76087190342421       -0.42249966071045
H           91.96517112402260       -8.24947534794353       -2.76682472546602
H           92.98423563067735       -6.64455164414561       -4.05496666376722
H           92.75987724388966       -4.24232608706126       -3.42767455747167
H           89.06889113442423       -4.19790616104044       -1.54878243435711
H           87.24280977256336       -2.32894461795756       -0.90198645992781
C          207.50426491501059       -0.05048106158974       -0.02344976733886
C          206.89974116398534       -1.26991640939871       -0.29940738860626
C          207.55642548595910       -2.50890161641180       -0.54269089502730
C          206.59830928228436       -3.45473293594749       -0.77681485672571
C          205.32483738963037       -2.82229838455875       -0.69506492445226
N          205.55798489552356       -1.50956992978988       -0.39508017680936
C          204.06498477881911       -3.40647908507149       -0.86505905667239
C          204.03599140281742       -4.84766302452332       -1.21598749237266
C          204.59579349562259       -5.30981152238737       -2.34416515097948
C          204.59429787789097       -6.77138501370124       -2.71016828964948
N          203.62103128675355       -7.51847600916317       -1.90919661829322
C          203.22435930154580       -7.05773229750665       -0.68120106945731
C          203.36919402516662       -5.77294544746170       -0.31129075191228
C          202.84794837961022       -2.73369750071187       -0.72814219288922
C          201.55362114696098       -3.34910161192507       -0.96014986520831
C          200.62913640068552       -2.39234629903111       -0.73716866307585
N          202.68852866725345       -1.42555937881488       -0.38729858857238
C          201.35983825427743       -1.19263882949216       -0.37611224369745
C          200.71892396297974        0.02026856727813       -0.05540601939056
C          201.34910117512268        1.23535735951744        0.27263342474230
C          200.69899571372312        2.44954956379492        0.61902754464137
C          201.66193609441206        3.39132784419162        0.85472928138938
C          202.93112226890511        2.78245506843981        0.65180680959873
N          202.68983134480791        1.47811546553106        0.30793709634386
C          204.19001551810607        3.37585611271340        0.79597722305538
C          204.21204913761571        4.81186257310083        1.16406844742033
C          204.78996368713791        5.23860323801267        2.29709227814643
C          204.83884682109243        6.69394676224144        2.68271285863315
N          203.87577461676747        7.48067793363941        1.90735213393713
C          203.46326791253730        7.05441783661705        0.67158162647352
C          203.56929440621767        5.77283216821658        0.27837218955176
C          205.40871255128565        2.71233517769223        0.61841631198721
C          206.71143206262508        3.35299132823411        0.70884566461269
C          207.62825999791340        2.39010811459153        0.48354996690784
C          206.88693098017364        1.16499715097711        0.24331965591901
N          205.55424586061204        1.39841666621790        0.32281538661509
H          208.58971109179043       -0.05706747893090       -0.01787754863922
H          208.62600058359678       -2.64656993618580       -0.53034054988813
H          206.75339746511662       -4.50185550599411       -0.98029117914529
H          204.82969846390523       -0.81617302538524       -0.26070955738681
H          205.09060459970800       -4.65066726119631       -3.04806425427410
H          205.60530129986660       -7.19965568682970       -2.57461877027962
H          204.32958440933544       -6.89586325690602       -3.76907430515362
H          203.69159032768471       -8.52059470465716       -2.00996789819000
H          202.71108685890155       -7.78945327196958       -0.06549700644459
H          203.00516615688250       -5.41627802511510        0.64165158801722
H          201.39703034650566       -4.37227128290568       -1.26137171829402
H          199.55555541327425       -2.46351113392414       -0.80890978861202
H          199.63002984923176        2.57493995350014        0.68180081154738
H          201.51041584942055        4.41723758039389        1.14851491301665
H          203.41511366719584        0.79413892036044        0.11879305158980
H          205.26659592840656        4.55295855226724        2.98787333797846
H          205.86006736470495        7.09324686597128        2.53660892758904
H          204.59405475731711        6.81174737502780        3.74694807488488
H          203.97831558639663        8.47858046527232        2.02301761514603
H          202.96922743146249        7.81155018317405        0.07098215842592
H          203.19520692691853        5.44566571114295       -0.68138720543756
H          206.87717086895168        4.40026857303757        0.90406193323574
H          208.70390644727209        2.47241704272049        0.46542509290373
C          100.43285642020717       -0.04208762393065        0.01890279412414
C           99.20492484980458       -0.03491842674015        0.01878453705244
C           97.85910327419455       -0.02551760120129        0.01743051320785
C           96.63560865375190       -0.01168724648456        0.02227599694521
C          101.77850858615852       -0.05130315503797        0.01797225539590
C          103.00220311427525       -0.05614995026490        0.01412109001145
C          116.48302874173805       -0.02261988098729        0.01254631810279
C          115.25380910527707       -0.02018604128564        0.01694647442675
C          113.91026021489351       -0.01730345213333        0.01754426609817
C          112.68550474882686       -0.01494084264114        0.02370979312078
C          117.82651262383204       -0.02712685973132        0.00801380842229
C          119.05134233530862       -0.02748904546836        0.00312425954268
C          132.53454809464671       -0.01117217586712       -0.00502768560184
C          131.30526602561812       -0.00502867360115       -0.00466858641321
C          129.96180034958567       -0.00122532146860       -0.00110561212321
C          128.73693755510598        0.00421943286884        0.00336318702527
C          133.87801524972545       -0.01253686069394       -0.00677799652182
C          135.10288941374918       -0.01832785348636       -0.01207050756776
C          148.58817764231844       -0.00962699591327       -0.00527017265659
C          147.35892182815829       -0.00432428813713       -0.00307668977367
C          146.01542034515046        0.00109735734153       -0.00088495409977
C          144.79034111946405        0.00369282513508        0.00098177017447
C          149.93163477375955       -0.01383965167931       -0.00665133541248
C          151.15651523516144       -0.01680475897766       -0.00980153458437
C          164.64172358765791       -0.00512155212563       -0.00201137359152
C          163.41239991058947       -0.00081009507633       -0.00037728934340
C          162.06891986952394        0.00422384125336        0.00153802279998
C          160.84399502248024        0.00701010305843        0.00456514242192
C          165.98516859277487       -0.00955056557817       -0.00317637272994
C          167.21001407569486       -0.01364628949910       -0.00608507001424
C          180.69311275316787        0.01451966034681       -0.00646327241832
C          179.46389086566180        0.01510601603641        0.00150380337820
C          178.12035078473497        0.01834602420301        0.00279205113022
C          176.89543678421708        0.01830399781567        0.00685790551262
C          182.03663011653654        0.01158224597808       -0.01095906250571
C          183.26136646070867        0.01110569407094       -0.01743957250683
C          196.74192831167545        0.05042379049469       -0.05154054345476
C          195.51403519462048        0.05917430788187       -0.05041985412848
C          194.16836660805600        0.06490274412548       -0.04569835168668
C          192.94472600257970        0.06798226962876       -0.03924235034999
C          198.08775726094640        0.04327728946074       -0.05313287916804
C          199.31119663817478        0.03294992415351       -0.05766193223223
C          104.40877410669610       -0.06376043288419        0.01468074964169
C          105.03378865487738       -0.27119138932668        1.25903230331541
C          104.38480529421484       -0.45002348286948        2.50813387048033
C          105.35019703896037       -0.59779235398850        3.46628263307925
C          106.61791032379226       -0.52180989298024        2.82770255019838
N          106.37538296393187       -0.31983574483921        1.49494089158991
C          107.87665974727653       -0.60691340842150        3.43368677171315
C          107.89307992802050       -0.84906710910532        4.89834198628291
C          107.39966273948714       -1.97696478197376        5.43101504783778
C          107.45587365941461       -2.26367683716613        6.90859932141516
N          107.71584828490874       -1.04223898943187        7.67491788344683
C          108.36323569230375        0.01985531247831        7.09978218428136
C          108.45532634909607        0.17431019810473        5.76703748288767
C          109.10321799843031       -0.48385796757343        2.77974751430386
C          110.38640358260140       -0.63668596251200        3.44132699717382
C          111.32960159180301       -0.47119645094238        2.49077491111346
N          109.28799890368445       -0.24106316474216        1.45240863239199
C          110.62081360105483       -0.22332799628035        1.25091122578025
C          111.28147388979636       -0.00890956170406        0.02382009589048
C          110.65517247024587        0.20299057146104       -1.22027968594622
C          111.30386871980232        0.38630980482943       -2.46859384544506
C          110.33823179407941        0.53470993021540       -3.42658082348644
C          109.07069759331695        0.45457170321853       -2.78836845664055
N          109.31386631239492        0.24995917563224       -1.45574759007376
C          107.81214096941862        0.53687110305417       -3.39450630040920
C          107.79470661306081        0.78124084617523       -4.85866452604337
C          108.28482661629228        1.91141804544617       -5.38960295270962
C          108.22646734269630        2.20121221728912       -6.86645944207206
N          107.96615294728488        0.98144393207009       -7.63537856680257
C          107.32255779009142       -0.08352500676838       -7.06137611603619
C          107.23377266856362       -0.24160480679688       -5.72883068288457
C          106.58539101263477        0.40955690888967       -2.74078382585926
C          105.30186506697014        0.55909140018015       -3.40293473959382
C          104.35886962600229        0.39198397059041       -2.45268107297012
C          105.06781949778977        0.14682990486170       -1.21227924997974
N          106.40152706490396        0.16693826469225       -1.41420013520890
H          103.31578559774229       -0.45599126138516        2.64753268025106
H          105.20122196337073       -0.73790427401564        4.52445409102804
H          107.09542095921800       -0.21317201115020        0.78823335148527
H          107.00218751080651       -2.77368723667691        4.81297964457826
H          108.23502440650734       -3.01949098559406        7.12212423731173
H          106.49838411677113       -2.68081889444722        7.24901147510890
H          107.90757643675995       -1.20634419117517        8.65262401318954
H          108.71992025217220        0.76752445726667        7.80098576623750
H          108.90207551227788        1.05671437344429        5.33163400203518
H          110.52370681110310       -0.85438451634939        4.48832684385104
H          112.40242754001846       -0.51418982451782        2.59095449190220
H          112.37286364764866        0.39456055848143       -2.60802898376090
H          110.48706894320266        0.67766944983766       -4.48438937186135
H          108.59407375914039        0.14046239970856       -0.74920619966049
H          108.68056027845410        2.70801252757106       -4.77028472604698
H          107.44657558504426        2.95700059328447       -7.07721185492190
H          109.18323900249878        2.61980645864556       -7.20719013933280
H          107.77103971270915        1.14797686781178       -8.61200625821590
H          106.96595953785170       -0.83024504764758       -7.76364076595851
H          106.79004848924828       -1.12620847324686       -5.29479710448765
H          105.16423100982477        0.77600525739357       -4.45004382512204
H          103.28598426021517        0.43257540403355       -2.55310568734474
C          120.45521927918254       -0.03328737119752        0.00213926890247
C          121.08293096580157       -0.24799452716182        1.24527277602626
C          120.43600691438064       -0.43186262505820        2.49415887211959
C          121.40318940284712       -0.58373095327619        3.45033975638520
C          122.66950843679359       -0.50552429819552        2.81002075394764
N          122.42458611469822       -0.29792453489914        1.47830771327273
C          123.92925862505692       -0.59373315086129        3.41390130609851
C          123.94707843824666       -0.84185930689104        4.87752935105821
C          123.45461439826101       -1.97213917441527        5.40602408707224
C          123.51329941516008       -2.26493921628319        6.88229316382664
N          123.77106701607804       -1.04595281761711        7.65322783410680
C          124.41820119284324        0.01854600248979        7.08206373520082
C          124.50986543069375        0.17810115921714        5.74990511045691
C          125.15548103547502       -0.46924842534434        2.75985297574461
C          126.43872106960514       -0.62613066927164        3.42025010758053
C          127.38177164810799       -0.45843562020012        2.46989296261702
N          125.34008038742483       -0.22176096143203        1.43320867345235
C          126.67283728336578       -0.20514607365438        1.23134197783676
C          127.33310920980421        0.01225091126811        0.00443310421888
C          126.70524570409651        0.22851680635647       -1.23839812449277
C          127.35212185028566        0.41307475150673       -2.48720966160416
C          126.38493834367557        0.56605938106644       -3.44318601724549
C          125.11856984593121        0.48782123622082       -2.80290161815375
N          125.36359415960209        0.27927244615113       -1.47127929144885
C          123.85887120939104        0.57580408488485       -3.40690026057546
C          123.84133978998538        0.82375397145904       -4.87051632602273
C          124.33577439101177        1.95307554758845       -5.39928935535510
C          124.27905105515059        2.24548781317702       -6.87569999871265
N          124.01617229138343        1.02752184269890       -7.64655269077308
C          123.36773997672680       -0.03580943595855       -7.07490450667519
C          123.27682862047224       -0.19540987947080       -5.74268901318221
C          122.63254820325285        0.45027830124030       -2.75300400821163
C          121.34918972980408        0.60590401415752       -3.41348806967800
C          120.40621904259234        0.43668993192349       -2.46330586596890
C          121.11530745971700        0.18423109211309       -1.22471372651937
N          122.44814890461736        0.20239982418095       -1.42650110315665
H          119.36724989548067       -0.43803831099203        2.63548836642862
H          121.25579067024128       -0.72791239097249        4.50817777334554
H          123.14319244594490       -0.18869154866409        0.77052143136564
H          123.05664466833052       -2.76637162088697        4.78512658431506
H          124.29464002086614       -3.01965694723426        7.09171189272512
H          122.55729326341852       -2.68584037594160        7.22213148737119
H          123.96321458494150       -1.21362087937955        8.63026427772523
H          124.77474319616798        0.76367774159639        7.78602658768413
H          124.95641342391757        1.06216619536927        5.31768347674066
H          126.57624735620723       -0.84788465762474        4.46636512955170
H          128.45457101529701       -0.50333162360282        2.56946268379302
H          128.42086455192836        0.41891876123385       -2.62862690634736
H          126.53242013168845        0.71093217449915       -4.50091264570281
H          124.64499135016344        0.16966750745272       -0.76353856046839
H          124.73460963247896        2.74695566082479       -4.77848452811848
H          123.50131073950915        3.00366741373064       -7.08586461937063
H          125.23717882014664        2.66202609275503       -7.21509432043633
H          123.82360527263425        1.19577293978114       -8.62338833225408
H          123.00914577115267       -0.78016432593866       -7.77865619769448
H          122.82915323837426       -1.07885636292916       -5.31037300336390
H          121.21139031985375        0.82792984147987       -4.45950702553486
H          119.33336830270598        0.48015284499606       -2.56300947182992
C          136.50671518968792       -0.02707540705356       -0.01113963856234
C          137.13290422643590       -0.24294687618009        1.23263794602732
C          136.48466399683164       -0.42633899250887        2.48088883097457
C          137.45082631656803       -0.57984614219146        3.43784724767210
C          138.71784233498695       -0.50300674773828        2.79871708708248
N          138.47430490509501       -0.29468231275447        1.46683303336338
C          139.97682799225927       -0.59259631680343        3.40400968284544
C          139.99243074185921       -0.84080605074456        4.86765958104251
C          139.49826735682629       -1.97062897905720        5.39554056972019
C          139.55433466533523       -2.26314821886332        6.87196891779511
N          139.81127963373592       -1.04407302441255        7.64304351894184
C          140.46032361539218        0.01976552350679        7.07280646139908
C          140.55458070454605        0.17887250311761        5.74077711819128
C          141.20416561740470       -0.46887720965051        2.75185551520643
C          142.48624358225885       -0.62658666785979        3.41435160894953
C          143.43098849719419       -0.45884756997773        2.46567434489248
N          141.39110983688698       -0.22105047198475        1.42563888576531
C          142.72425326423587       -0.20491992867939        1.22602602786734
C          143.38650826577754        0.01221202119109        0.00016255459140
C          142.76026533891428        0.22814427742173       -1.24353594642425
C          143.40857071838821        0.41153894307159       -2.49174703997505
C          142.44244869198926        0.56442819522992       -3.44882734983393
C          141.17537071597042        0.48734870657944       -2.80980660443634
N          141.41887372409687        0.27942745420041       -1.47783942403514
C          139.91641484255445        0.57635656169133       -3.41526530950184
C          139.90104998802238        0.82379669403567       -4.87902031012306
C          140.39670591440984        1.95271904991899       -5.40748033959559
C          140.34188746977287        2.24451799429505       -6.88408628979446
N          140.08146871746396        1.02586915799614       -7.65467272820673
C          139.43136818231775       -0.03688841827847       -7.08376701916419
C          139.33756413454248       -0.19555274001049       -5.75164330456855
C          138.68903698886359        0.45275177534887       -2.76307924097614
C          137.40692719764004        0.61024238104103       -3.42556136062382
C          136.46222670776496        0.44298879790564       -2.47675079616794
C          137.16900651178813        0.18954694729367       -1.23705377548146
N          138.50216004981641        0.20552549815040       -1.43674680912290
H          135.41578274128398       -0.43113359540922        2.62129433795909
H          137.30228226135213       -0.72425214958285        4.49549216803156
H          139.19354723767893       -0.18606567305478        0.75959498602458
H          139.10063723525656       -2.76463989667666        4.77414340747039
H          140.33498947658188       -3.01814904984379        7.08292398525323
H          138.59755893710602       -2.68354140827310        7.21025099559291
H          140.00143213713184       -1.21156926425580        8.62050026863541
H          140.81610529165218        0.76484778830550        7.77720871386196
H          141.00263108664998        1.06246057613696        5.30913523410386
H          142.62194484612328       -0.84885855977992        4.46059465646315
H          144.50360632129656       -0.50412489956723        2.56705298498864
H          144.47746722913911        0.41672587813578       -2.63204142900600
H          142.59111842449184        0.70853007529227       -4.50649099449492
H          140.69959862337043        0.17070084627005       -0.77064895047149
H          140.79509768442810        2.74661973639029       -4.78642328508810
H          139.56362722944527        3.00177620483278       -7.09571333252195
H          141.30006229881056        2.66187803015385       -7.22226401921615
H          139.89119013105309        1.19339584557051       -8.63208839636969
H          139.07410504744306       -0.78162207766165       -7.78779110817963
H          138.88860066941822       -1.07849686135661       -5.31963418947027
H          137.27111402038361        0.83210119087818       -4.47187633837564
H          135.38960176277641        0.48828481207090       -2.57806740464528
C          152.56033013375779       -0.02542539978262       -0.00858205283857
C          153.18640331877322       -0.24164284495773        1.23517986196893
C          152.53801278872237       -0.42543137903804        2.48329074474429
C          153.50406958534376       -0.57817851074875        3.44046525362860
C          154.77119812862634       -0.50067867628371        2.80159805207703
N          154.52778494856980       -0.29279550075460        1.46961072230044
C          156.03010783107328       -0.58889374348324        3.40726813398941
C          156.04538753615151       -0.83577885711319        4.87113266672070
C          155.55091597430581       -1.96504486688810        5.39994668261138
C          155.60579446171798       -2.25612543977357        6.87669899595135
N          155.86431590265224       -1.03675787419270        7.64678786566503
C          156.51340748137247        0.02648055026445        7.07561320014181
C          156.60746854395325        0.18461417174575        5.74344560002955
C          157.25754169802440       -0.46467424489908        2.75531309776955
C          158.53960340666617       -0.62078220812691        3.41821365221820
C          159.48442108277584       -0.45330508142987        2.46955967473216
N          157.44457742187748       -0.21800024445906        1.42889861766521
C          158.77776636444744       -0.20121352488363        1.22950942080548
C          159.44017485362278        0.01483226126366        0.00353807057012
C          158.81411853997918        0.22943474550062       -1.24049355148917
C          159.46250516380616        0.41184005582687       -2.48880827537793
C          158.49643932951264        0.56435254352930       -3.44602558387978
C          157.22935788042386        0.48797553260428       -2.80697050549451
N          157.47274485991775        0.28074795473219       -1.47488831677816
C          155.97042546706470        0.57742786946258       -3.41238619167363
C          155.95494102623115        0.82503383393420       -4.87613223553229
C          156.44967770850272        1.95442250261026       -5.40441948414863
C          156.39372375279109        2.24650959892707       -6.88093414495164
N          156.13584688870276        1.02738458180152       -7.65161658899574
C          155.48628306002104       -0.03591538529121       -7.08097088835734
C          155.39216208507165       -0.19460992180333       -5.74888304252907
C          154.74303262313970        0.45438002360017       -2.76020555008982
C          153.46103870596252        0.61244216114250       -3.42278853622443
C          152.51619913581578        0.44531181090049       -2.47410671610805
C          153.22279390759266        0.19146489494863       -1.23436548963502
N          154.55594919006487        0.20699600635085       -1.43392385161645
H          151.46910366387209       -0.43089326220321        2.62346739962167
H          153.35534187103920       -0.72246138532876        4.49809682963157
H          155.24711263727806       -0.18383073700072        0.76250941364870
H          155.15355926753276       -2.75965927622008        4.77914098842133
H          156.38507279519467       -3.01219329605760        7.08884773521926
H          154.64813036946387       -2.67466952418381        7.21484721530706
H          156.05443810134133       -1.20356881685462        8.62435834465114
H          156.86956505107196        0.77196696668471        7.77939997989579
H          157.05557961339508        1.06784870383147        5.31114651321701
H          158.67530846228351       -0.84191428619453        4.46469576987465
H          160.55705507951436       -0.49765084534068        2.57118820386425
H          160.53140565068207        0.41667006873339       -2.62908982064880
H          158.64510671317154        0.70778531924412       -4.50378651832338
H          156.75343924729904        0.17266168564543       -0.76763468028108
H          156.84773446114571        2.74843341730088       -4.78329440549609
H          155.61359740854289        3.00200746675795       -7.09206504921145
H          157.35077763022244        2.66612054483041       -7.21941280920217
H          155.94563019468052        1.19471282628035       -8.62908931316892
H          155.12993657270303       -0.78097174377978       -7.78511549563475
H          154.94367372768141       -1.07782201404485       -5.31692905493926
H          153.32546353676992        0.83454060018442       -4.46908467450406
H          151.44360139555798        0.49102918473580       -2.57552220175154
C          168.61383619311155       -0.02179590700943       -0.00540144867469
C          169.24002235150323       -0.23773296113375        1.23833261444921
C          168.59142677472278       -0.42249631990393        2.48622486228546
C          169.55729885703153       -0.57473741172354        3.44364059781196
C          170.82454957264352       -0.49576720459218        2.80520371412529
N          170.58135476001954       -0.28769634489051        1.47317036348965
C          172.08341426829833       -0.58258856815135        3.41107939560909
C          172.09900760387885       -0.82978518559746        4.87485583485832
C          171.60520485379112       -1.95945354999835        5.40345536304686
C          171.66025103471563       -2.25105480212537        6.88009534667258
N          171.92007118994309       -1.03227802514635        7.65070533151494
C          172.56806436184516        0.03158054769381        7.07950633672744
C          172.66089570879564        0.19055534414789        5.74735160818431
C          173.31059692100933       -0.45663243924627        2.75890222520682
C          174.59309577780991       -0.61093545607183        3.42137057170538
C          175.53732564554144       -0.44229103096171        2.47233604111244
N          173.49675218724607       -0.20983826794310        1.43244530842771
C          174.82986267265244       -0.19139416757405        1.23249097132471
C          175.49157296879872        0.02502332321581        0.00633342825887
C          174.86556419700676        0.23865075008964       -1.23783886191276
C          175.51419543050591        0.42150609252451       -2.48598836771842
C          174.54831978261211        0.57286139042977       -3.44356683389332
C          173.28113388301492        0.49527921905783       -2.80489125083401
N          173.52423402898077        0.28857982526581       -1.47270617290855
C          172.02220604918423        0.58330642675573       -3.41048872746484
C          172.00633602462969        0.83073186399475       -4.87424693193176
C          172.49988411070214        1.96058202158107       -5.40265563325246
C          172.44309988819666        2.25278115162500       -6.87911310366658
N          172.18550360451115        1.03364225767863       -7.64987322418975
C          171.53737581573958       -0.03039074593864       -7.07896655545431
C          171.44422014823834       -0.18939993512320       -5.74684889921937
C          170.79511595547547        0.45924626242571       -2.75798486930055
C          169.51275651310459        0.61598248593114       -3.42012837041101
C          168.56844246568375        0.44848804417021       -2.47099203811777
C          169.27573041159124        0.19548811685816       -1.23144217704283
N          170.60875776568341        0.21209244817105       -1.43152901437343
H          167.52247983186260       -0.42902748023123        2.62606993291049
H          169.40835966741707       -0.71958024283582        4.50116793525240
H          171.30093239117420       -0.17783553892954        0.76646118011769
H          171.20824926517673       -2.75413755032855        4.78247581855845
H          172.43891282477722       -3.00788122347905        7.09174395283117
H          170.70231080645161       -2.66895223162535        7.21832977961132
H          172.11139950874855       -1.19976466449107        8.62791981521693
H          172.92455227647443        0.77679529959908        7.78341715177773
H          173.10812071512623        1.07432726918107        5.31523440025400
H          174.72949608671627       -0.83171836407401        4.46783702920894
H          176.61005959896141       -0.48513858771000        2.57357716382454
H          176.58313932693181        0.42743079921032       -2.62590632699541
H          174.69717280666606        0.71629780224984       -4.50130079889931
H          172.80466746915522        0.17988827195385       -0.76581298411125
H          172.89738764705621        2.75494455965060       -4.78162339184498
H          171.66244265314646        3.00786827234533       -7.08973928239528
H          173.39974247893738        2.67299818327818       -7.21800853944335
H          171.99430845293887        1.20107263897484       -8.62713658936371
H          171.18130849454204       -0.77566508656486       -7.78302071479006
H          170.99690920251734       -1.07316070899034       -5.31479305052024
H          169.37661973470213        0.83752956280951       -4.46646975253325
H          167.49577495609776        0.49332070935818       -2.57200478528796
C          184.66538227347581        0.00641364096511       -0.02167258760564
C          185.29601557328746       -0.20539760584830        1.22022574967668
C          184.65175179341429       -0.39067026438613        2.47054752511003
C          185.62080734150405       -0.53835812096130        3.42519206366338
C          186.88609644144597       -0.45570795709789        2.78283455979773
N          186.63817110869147       -0.25045433038856        1.45119750499676
C          188.14679073051207       -0.53648714280686        3.38469944437848
C          188.16952028385214       -0.78191786905054        4.84862412565891
C          187.68352213407996       -1.91351262043287        5.38032084580913
C          187.74750163441030       -2.20430999271240        6.85675239872476
N          188.00762947657478       -0.98453394325609        7.62571839556842
C          188.64712025178258        0.08220565005588        7.05040456757771
C          188.73121481441001        0.24144148451930        5.71769231898963
C          189.37120450116464       -0.40677935564165        2.72705094071921
C          190.65710295195885       -0.55488713384227        3.38491357746339
C          191.59675594193462       -0.38561898926445        2.43173050619620
N          189.55040476960147       -0.16283447714443        1.40007984521951
C          190.88343550078875       -0.14051053972934        1.19382320508020
C          191.53810558255094        0.07272547093592       -0.03504575929963
C          190.90863034315629        0.28056566146390       -1.27706111886862
C          191.55322101146456        0.46170403720741       -2.52810076504147
C          190.58445518375186        0.60807950097585       -3.48305005768416
C          189.31896417076621        0.52900435810969       -2.84045948569882
N          189.56618376925209        0.32667812990710       -1.50861089289495
C          188.05808727345524        0.61182952261447       -3.44230921075195
C          188.03629816183872        0.85404525033042       -4.90688662415302
C          188.52566637445670        1.98287483310826       -5.44130689450499
C          188.46389799168125        2.26935342352213       -6.91872152413177
N          188.20349339017000        1.04740929914705       -7.68409235314579
C          187.56020316763406       -0.01591898532082       -7.10665336315784
C          187.47307846252042       -0.17048819413561       -5.77359211313176
C          186.83391851522097        0.48628282920700       -2.78440304711203
C          185.54834111153394        0.63722611344525       -3.44175601486230
C          184.60852390322785        0.46984982955010       -2.48820208102783
C          185.32175768397775        0.22256273759525       -1.25076757312790
N          186.65387104986061        0.24259108935002       -1.45657667386912
H          183.58323189442100       -0.40071973411932        2.61348477390941
H          185.47574217518323       -0.68244641516221        4.48337204027727
H          187.35542735422823       -0.13927989834152        0.74234315749343
H          187.28734382862527       -2.71043919961851        4.76171496818445
H          188.52982028762983       -2.95848356842602        7.06429327834669
H          186.79284051942361       -2.62533898076834        7.20038359941330
H          188.20632505261349       -1.15136661711161        8.60157563897544
H          189.00444510463649        0.82915339116020        7.75205508724392
H          189.17170230101226        1.12726630743047        5.28285556381569
H          190.79845149081044       -0.77237742357853        4.43140640132105
H          192.67001581521185       -0.42467446087915        2.52864650637159
H          192.62177454947957        0.46996185748252       -2.67091737450012
H          190.72974083341305        0.74921707586665       -4.54159779940929
H          188.84864120950232        0.21797668911992       -0.79967622358053
H          188.92363429532654        2.78044927990778       -4.82468787665569
H          187.68267408435858        3.02375760536950       -7.12964376192502
H          189.41947243127120        2.68818918898850       -7.26242905942598
H          188.00796283377392        1.21112325752840       -8.66110995312220
H          187.20251527101078       -0.76431133208852       -7.80657358266616
H          187.02955868235884       -1.05373208555003       -5.33659332516204
H          185.40726986129425        0.85512537720018       -4.48821316893612
H          183.53531322706581        0.51112280812048       -2.58491986564486
