130
 energy: -248.257621383707 gnorm: 0.000472554992 xtb: 6.5.1 (b24c23e)
Ni          16.44507296824419       -0.08085224210014        0.03045703555065
C           13.05336201279525       -0.17441381548896        0.05117463310386
C           13.71238765406084       -0.33654807699103        1.25173961173931
C           13.03985461258280       -0.52561911768339        2.50085705355304
C           13.99467280030472       -0.52318398671678        3.45967386339557
C           15.25203245330191       -0.34586462781515        2.79344371332150
N           15.06955999254640       -0.24903524510222        1.43669781999055
C           16.46431964107904       -0.19937287690090        3.45464948376516
C           17.66999445528562       -0.02754792861338        2.78836432039492
C           18.93424483549843        0.07708022808569        3.45203873143549
C           19.88245487545240        0.10378335864163        2.48538430716589
N           17.84314462854993       -0.04776803627973        1.42266865102390
C           19.19665657522663        0.01347657073555        1.23575029066433
C           19.85826986185737       -0.06797708239021        0.00732426213118
C           19.17947919472440       -0.13436933022837       -1.21238763828606
C           19.84584817240840       -0.23364922435189       -2.47165009768633
C           18.88539402422436       -0.17636461494716       -3.42516367878121
C           17.63433658325892       -0.03531441034866       -2.74368894002186
C           16.41556117935239        0.11929429844898       -3.39160050818301
C           16.40308563042257        0.20963042122874       -4.87016197237678
C           15.72116421758776       -0.74418233228861       -5.63058536922256
C           15.70669880019380       -0.65653061643698       -7.01033121106227
C           16.37148110194824        0.38773573308987       -7.65595021690382
C           16.32215128341836        0.44180978149803       -9.13674035214606
O           17.00224898257179        1.47335371099796       -9.65947491738617
O           15.73335951699237       -0.35086064237871       -9.82691442724090
C           17.05482317371860        1.34188400493512       -6.90146856987145
C           17.07078305223520        1.25032776750505       -5.52061177289626
C           15.20607034537204        0.18021904681872       -2.71083113843004
C           13.93584040008884        0.36483866344001       -3.35029883104326
C           12.99300783163552        0.26598697189827       -2.38449076423612
C           13.68813985795262        0.04024821345438       -1.15423049772838
N           15.04552265291582        0.02266804372194       -1.35707020279022
N           17.82464345575344       -0.04738715992670       -1.38055923914498
C           16.47330647339978       -0.23588358973168        4.93730861347214
C           16.14071428707722       -1.40969891633987        5.61735428852103
C           16.15176205561198       -1.44085537284420        6.99984351401283
C           16.49127953433387       -0.29821058785020        7.72656832842947
C           16.48713800970867       -0.38083337183188        9.20693447047138
O           16.83530206643175        0.76607269226719        9.80964851325195
O           16.20191086922868       -1.37035621343857        9.83210352292087
C           16.82222755766636        0.87680009436280        7.05115086224929
C           16.81494941839433        0.90459050747289        5.66734978979235
H           11.97003034335433       -0.20269769080318        0.05774010346053
H           11.97208443096360       -0.62904517028058        2.61008048986779
H           13.87100848816524       -0.61892099440468        4.52607807234444
H           19.06943638080826        0.10690591087723        4.52078563406377
H           20.95309652285576        0.16829289133540        2.59302193151795
H           20.91227816112990       -0.33291586106778       -2.59381594042232
H           19.00281435853093       -0.23216673065814       -4.49497669212116
H           15.21530455426718       -1.56306741663027       -5.13186917285373
H           15.18209796734367       -1.39508613162957       -7.60651493868824
H           16.91958121160964        1.43751719623962      -10.62629107055407
H           17.57033849413189        2.15518112152447       -7.39839686444751
H           17.59082735453404        1.99921854880293       -4.93397026405042
H           13.79676123175867        0.54891594366096       -4.40311618745379
H           11.92114815305980        0.34049049175451       -2.47577384508824
H           15.88778924733288       -2.30066508735345        5.05405546540400
H           15.89955167954857       -2.34963628360697        7.53518002484084
H           16.80789509522641        0.62898351639130       10.77052673016794
H           17.08327147327925        1.76674324740639        7.61147606969329
H           17.06260818796157        1.81991773730621        5.14181604888536
Ni          32.44725734700370       -0.07595315641768       -0.03950549229697
C           35.83917703320228       -0.16779328243233       -0.07070690736985
C           35.18031677603109       -0.18687699434677       -1.28208718248065
C           35.85333739717564       -0.22679121554333       -2.54451981039265
C           34.89863494790649       -0.11346452814902       -3.49670901090965
C           33.64084990539320       -0.01804869839451       -2.81468178907230
N           33.82303964937665       -0.07999691550671       -1.45584880313123
C           32.42812727152570        0.20032679873705       -3.45497129742628
C           31.22197040591190        0.29094965008994       -2.77369792168328
C           29.95740370100050        0.46715482112013       -3.42144859524169
C           29.00928779767061        0.38271971342530       -2.45804400377836
N           31.04900408114027        0.11550757090249       -1.41913753853963
C           29.69541986403215        0.15268263728392       -1.22664622321083
C           29.03376861895158       -0.06650503750218       -0.01519107366999
C           29.71235258059588       -0.26870437118119        1.18953020057020
C           29.04551793389285       -0.50714915103625        2.42974003011045
C           30.00598836683207       -0.56047589465368        3.38341832751826
C           31.25748830928777       -0.34672346705528        2.72197797590980
C           32.47664278587088       -0.27213497903914        3.38309499424638
C           32.48895885504903       -0.35316346716445        4.86226080531632
C           33.16481361092162       -1.39243498328863        5.50730471169443
C           33.17881552400932       -1.46492910591236        6.88794602633277
C           32.51979003170876       -0.49832469464795        7.64991521732025
C           32.56871863472642       -0.61578355332026        9.12704415587355
O           31.89427127173458        0.35243890779845        9.76543611497679
O           33.15222761465594       -1.48643262840076        9.72102997317721
C           31.84258187250153        0.54065456247621        7.01076850767456
C           31.82697002497869        0.60934793439117        5.62858316115032
C           33.68652805635060       -0.13721493896337        2.71387625986604
C           34.95702666146911       -0.03212603233529        3.37057425938291
C           35.89982683385737       -0.01887098555319        2.39980304741666
C           35.20442108197077       -0.09687321162396        1.15158484020285
N           33.84697750545684       -0.13569484910006        1.35096696192346
N           31.06734226110943       -0.20348282887619        1.36630826165590
C           32.41925917124713        0.33500516996512       -4.93190147875150
C           32.75864424672923       -0.75049517902082       -5.74274256744099
C           32.74793504818827       -0.62184859090548       -7.11958262856108
C           32.40184332240144        0.59508365799248       -7.70976790683768
C           32.40707854690275        0.68418939995137       -9.18971913606190
O           32.05016608743122        1.89029886861818       -9.65631099927936
O           32.69920043111906       -0.22445879974835       -9.92468151886541
C           32.06390363977936        1.68226690553349       -6.90343769529205
C           32.07101164527967        1.55013944984651       -5.52569251725216
H           36.92250414700511       -0.19537625742469       -0.08051707531408
H           36.92129818710651       -0.31485967503358       -2.66478036597898
H           35.02266747079450       -0.08303037105006       -4.56691872987223
H           29.82193606072816        0.61712836606813       -4.48000000498383
H           27.93850546371857        0.45696178483646       -2.55771185934887
H           27.97883040451827       -0.61684328221104        2.54014455685661
H           29.88830468736260       -0.73643350734138        4.44010356393432
H           33.66628987578276       -2.15109900157246        4.91727645357589
H           33.69865339091486       -2.27052915160817        7.39478216867426
H           31.97620220880284        0.20476751340771       10.72164319119538
H           31.33154977802650        1.29412925052050        7.59835910261193
H           31.31162989986896        1.42398850435875        5.13238334406890
H           35.09625849486121        0.02654939404246        4.43773238782883
H           36.97182879750511        0.04208721024278        2.49910857499502
H           33.01665632591119       -1.69910139826806       -5.28594240466313
H           33.00578353831467       -1.46116651187873       -7.75607873732717
H           32.07844237032744        1.86516757909077      -10.62656604920394
H           31.79750902926363        2.62937063356115       -7.35744805068367
H           31.81809413948084        2.39725119914871       -4.89817842955415
C           25.05990774488138       -0.08529512238786       -0.00335591606881
C           23.83217192400331       -0.08354586246349       -0.00375186208959
C           22.48693076167389       -0.08135702752004       -0.00183760220721
C           21.26361709464522       -0.07734366402766       -0.00079545531309
C           26.40513718820007       -0.08244986185872       -0.00423478324541
C           27.62840583257395       -0.07605017693391       -0.00793068208353
