262
 energy: -455.751519404075 gnorm: 0.000454607332 xtb: 6.5.1 (b24c23e)
Co          39.92256649383565        0.01735091275457        0.03880880467845
C           36.55433924041094        0.10950631938165        0.13320416232923
C           37.21568224567896        1.05082808982223       -0.62684967861127
C           36.56258432171103        2.04832643781206       -1.41766260259286
C           37.52760599082565        2.89615385486935       -1.84746705203269
C           38.76707899005273        2.42426616249200       -1.30354078576279
N           38.57346768616241        1.25273426494176       -0.61802390623538
C           39.96448344475976        3.12913734881352       -1.35480275603802
C           39.98265876493683        4.48053001924621       -1.95383182316161
C           40.83826241974024        4.77718238809971       -3.01832694308633
C           40.85697558664240        6.03957379770147       -3.58324547143518
C           40.02717395634633        7.04546574070920       -3.08047510143452
N           40.01592480499376        8.29830750590285       -3.66648230341972
C           39.16641941846854        6.75647858370709       -2.01802531366387
C           39.14572064379900        5.48819223126398       -1.46656156088894
C           41.14207097988715        2.59706640059208       -0.84838620397019
C           42.39018060512929        3.29711757800107       -0.80395515445620
C           43.33145415444480        2.39656747428582       -0.42909522288742
N           41.30934440139976        1.29638410092709       -0.43020909061127
C           42.65420754598075        1.15438029966455       -0.23508412959500
C           43.31134422185522       -0.06149113308786       -0.02340493440342
C           42.60771395038169       -1.24839673514487        0.20241412708669
C           43.23313557088733       -2.52267429740621        0.35779107492644
C           42.26331277314654       -3.38584218587190        0.74774109082079
C           41.05123562815151       -2.62984949955251        0.84516166406476
N           41.26468201853053       -1.33193748573544        0.43858127032565
C           39.87123916885297       -3.11064249240880        1.39501392205462
C           39.84389835731842       -4.47033570589074        1.97461939077926
C           40.72852917153878       -4.82969488481898        2.99511684868554
C           40.70114818913669       -6.09914909661028        3.54367938818787
C           39.79348701729084       -7.04950068400174        3.06815646353423
N           39.73700758281732       -8.30760416236014        3.64012046043672
C           38.90325407661171       -6.69749380731944        2.04991353458836
C           38.92963581373905       -5.42229182441705        1.51493605489432
C           38.71233699406212       -2.34224723216869        1.41515477247612
C           37.48174653924548       -2.75181230871967        2.02562339686877
C           36.54406267125351       -1.84247625552763        1.66694310830204
C           37.20539829740839       -0.87262788486903        0.84896830893308
N           38.54640913627616       -1.15190479667789        0.75587965517885
H           35.47159560064204        0.14066374904294        0.16629571894668
H           35.50088039010969        2.08205292957937       -1.60428545113780
H           37.42214062575732        3.76632076503936       -2.47496186907046
H           41.47838093535619        3.99962407928291       -3.42062615815031
H           41.51615186800054        6.25377239918546       -4.41740373732095
H           40.85039722307444        8.53987149370600       -4.17649693623588
H           39.66377259257531        9.04048292365399       -3.08341034916175
H           38.51848747424570        7.53237500545021       -1.62503396136017
H           38.48931792870090        5.27801019062870       -0.62919633320428
H           42.51926290630477        4.34301923604258       -1.03039706802864
H           44.39161670116516        2.54314475671188       -0.29856629228846
H           44.28088043613452       -2.71485244081854        0.19092983193354
H           42.35097688935794       -4.44026534864035        0.95356665765814
H           41.42866645094544       -4.09496245215571        3.37741961381864
H           41.38393411512379       -6.36178614979915        4.34433293228424
H           40.57850083491554       -8.60317894285375        4.10844503578214
H           39.31669280888290       -9.02052349672459        3.06575445939645
H           38.19472690075310       -7.42987010733045        1.67858735705159
H           38.24818449613888       -5.16314395022277        0.71200388489059
H           37.36337951306323       -3.62470982154584        2.64700002057067
H           35.49526305854452       -1.81815499564259        1.91715759676729
Co          95.46545188085024       -0.00483889131315        0.05689607115581
C           98.83410665033053        0.01494834174038        0.17789797946595
C           98.17183906707881       -1.13871480143209        0.54015751228777
C           98.82453199281341       -2.34903716747122        0.93534642006964
C           97.85922904592474       -3.17558867013451        1.40387051685999
C           96.61959295023573       -2.46190219067108        1.30928847059923
N           96.81352636369782       -1.24384777247833        0.70971994990294
C           95.42185544652705       -2.89473277330220        1.86639975605238
C           95.40360567844139       -4.13988310931480        2.66329889549002
C           94.55030057490976       -5.19278353171475        2.32222311850547
C           94.53154564510476       -6.35994304635827        3.06426709663811
C           95.35917163059594       -6.49370721639771        4.18238963566387
N           95.37052874644966       -7.67328998462442        4.90489676509825
C           96.21780044099663       -5.44681675721821        4.52861943484689
C           96.23836026295312       -4.28753671013229        3.77442730216733
C           94.24386047294486       -2.17972326697321        1.69976909393565
C           92.99451769169093       -2.53097485931952        2.30423001642581
C           92.05371525312135       -1.72218803465195        1.75804623417688
N           94.07759743002418       -1.11387323529301        0.84512793160176
C           92.73234568232591       -0.87302771723763        0.83198481909778
C           92.07741192876996       -0.02283227160022       -0.06349664217200
C           92.78229939790711        0.82490575893770       -0.92233870719957
C           92.15850449983778        1.66220744606336       -1.89651014044297
C           93.12901313989305        2.46591400294571       -2.39604659035910
C           94.34006425839381        2.12710379029824       -1.71138595192469
N           94.12599067471423        1.06668194416761       -0.85986081887779
C           95.51974737182911        2.85228115505481       -1.80376284380270
C           95.54763175534710        4.08962699925515       -2.61241451085899
C           94.66182040722535        5.13724095651008       -2.34617296040943
C           94.68961519256391        6.29835898992294       -3.09737251771921
C           95.59915032621528        6.43131683562019       -4.15004974755614
N           95.65593991668977        7.60568153348442       -4.87885365969105
C           96.49083335405106        5.38984174659646       -4.42090439952581
C           96.46376699356486        4.23669898095283       -3.65759523471730
C           96.67749183074670        2.44292699898949       -1.15163005418384
C           97.90787832346660        3.17830980726624       -1.15086028517992
C           98.84513175884057        2.37471699364175       -0.59350072244839
C           98.18371704788098        1.15552772814879       -0.24274074901870
N           96.84339655400454        1.23244440053714       -0.52979330701838
H           99.91679082199285        0.02476745208419        0.22335235013990
H           99.88641282045252       -2.52286009841843        0.86194616039527
H           97.96441749020525       -4.17917546401230        1.78310016704736
H           93.91186458462795       -5.10079233240911        1.45036807981841
H           93.87397547502400       -7.17487384541814        2.78193567720590
H           94.53644796185512       -8.23242630085313        4.82411208450697
H           95.72019195144021       -7.59479123264706        5.84640246192019
H           96.86414523804498       -5.54570637084247        5.39391961731960
H           96.89310276278546       -3.47212483562611        4.06191282020214
H           92.86440169932241       -3.29749988579233        3.05080402502087
H           90.99302663662364       -1.69550299453277        1.94964390816667
H           91.11112219838492        1.63025494454557       -2.15050171780861
H           93.04240907872810        3.22309179768493       -3.15829330923885
H           93.96017363842189        5.04669734246423       -1.52417434029029
H           94.00565428221402        7.10946936608881       -2.87258711358029
H           94.81343566242521        8.15784297527418       -4.86681453198560
H           96.07782099838292        7.52371525137111       -5.78998096465034
H           97.20098828503737        5.48834468611263       -5.23469594534678
H           97.14632564860817        3.42559277045468       -3.88663580446386
H           98.02640796136853        4.18024777247049       -1.53054784867039
H           99.89357836336123        2.56967598784063       -0.43243573663812
C           44.71204804873263       -0.08930799610371       -0.04176751640819
C           45.93748785458123       -0.10332276118739       -0.05696651014116
C           47.27826006681520       -0.11386449251876       -0.06974988796320
C           48.51012143676085       -0.11535807786978       -0.07998270413767
C           49.84610030089326       -0.11285301071267       -0.08664512318905
C           51.07811007249768       -0.10532146903513       -0.08887190420353
C           52.41864210987151       -0.09615745180322       -0.08420383382102
C           53.64439441057527       -0.08378200025000       -0.07498944392791
C           63.22642319324392       -0.07390604589733       -0.08615614368276
C           64.45223035020891       -0.07870077250311       -0.10674355859932
C           65.79249790370672       -0.08140282740724       -0.12227806566088
C           67.02475248813192       -0.08247504008530       -0.12881598884364
C           68.36043370303906       -0.07982468517248       -0.12976614647274
C           69.59265130128671       -0.07635803010759       -0.12332142763553
C           70.93294570038731       -0.06819445992076       -0.11036709328143
C           72.15874065077114       -0.05802222990745       -0.09274837959091
C           81.74279871779241       -0.04105529888098       -0.08854216184957
C           82.96793578700436       -0.04197183488740       -0.11280982621448
C           84.30927080027820       -0.04187931237668       -0.13102732816754
C           85.54078244572278       -0.03589767901423       -0.14100609353927
C           86.87770924721873       -0.03517070638856       -0.14266183921495
C           88.10915962640222       -0.02808835876885       -0.13700657294406
C           89.45081956347920       -0.02663282525257       -0.12157359682517
C           90.67574479608220       -0.02247402507510       -0.09963999623359
Co          58.43622517471429       -0.06407550444031       -0.02451624079805
C           55.04459083936864       -0.07460116955985       -0.05648727458924
C           55.72872879482497        0.98580512554576       -0.65996612944972
C           55.07332320365390        2.08017863217160       -1.30147768335795
C           56.02407192520680        3.01770408508779       -1.53529126546459
C           57.26007313772451        2.48463064400916       -1.04869480304351
N           57.07115442022459        1.21518141303921       -0.55372803129958
C           58.43149195112307        3.22021379233209       -0.91802455293674
C           58.42743120707627        4.65217405872144       -1.29662104142014
C           58.20272507509577        5.03975647838887       -2.61931385515538
C           58.20067844670871        6.37704162003764       -2.97426620575599
C           58.40872036003697        7.36080838739675       -2.00379480679777
N           58.44471148051677        8.69652735470358       -2.36135834789434
C           58.63959030350646        6.97942547914036       -0.67933402067526
C           58.65058974875695        5.63961875723593       -0.33451833797670
C           59.60895757656593        2.65115905881126       -0.45202270404548
C           60.85348856204472        3.35251729953722       -0.35587736507779
C           61.81178349498068        2.42125145274700       -0.12984494306579
N           59.80061178412597        1.30585696308470       -0.23233148509576
C           61.15014384910129        1.15647657238805       -0.08818830627910
C           61.82667874938684       -0.06773152044345       -0.05261846226783
C           61.14230086845781       -1.28501190278228        0.03079292318426
C           61.78805892597747       -2.55812301291676        0.04362673124937
C           60.83454405416541       -3.47294459120995        0.34924087765470
C           59.61275353161163       -2.75046672608682        0.53042985771789
N           59.80313579705105       -1.41469780121652        0.26584424042795
C           58.43760681999809       -3.30534253167678        1.02310118418052
C           58.44085872517178       -4.71128559216338        1.47585165033318
C           57.54630996265875       -5.63855634663161        0.93328685224518
C           57.54986452616107       -6.95661284683463        1.35140089655090
C           58.44255149068920       -7.37630583833926        2.34181590908832
N           58.47374214508787       -8.70059006733346        2.73609946348682
C           59.34344987248590       -6.45667289524915        2.88651537077934
C           59.34164889895272       -5.14330422281797        2.45374292473125
C           57.25790586182172       -2.57415072034678        1.08747500038242
C           56.02566936463953       -3.07287529198434        1.61776406363689
C           55.06690978737428       -2.17057439659636        1.29257172793760
C           55.72146368828009       -1.11680575812564        0.58620945928171
N           57.06803203844164       -1.33393123530074        0.52283277880373
H           54.01725105514540        2.12231530012974       -1.51437891747891
H           55.90260314986398        3.99343270560245       -1.97651248767619
H           58.05046784939859        4.28177364691845       -3.37977968983260
H           58.03677067631173        6.66645550248609       -4.00650113374955
H           57.96296379348176        8.92389046672808       -3.21635987608931
H           58.27300606166408        9.34543527061767       -1.61019954403186
H           58.80624069285975        7.73820825000722        0.07737730097842
H           58.81335637673229        5.35152197749898        0.69823434055246
H           60.97335659213914        4.41651563887474       -0.47831334249778
H           62.87505259775588        2.56042249080702       -0.01830724266946
H           62.83689706709176       -2.71545928141798       -0.15020789152104
H           60.93954024105253       -4.54166452186769        0.44142008756605
H           56.85883265986880       -5.32453190117724        0.15555142239794
H           56.86004223707311       -7.66937567506768        0.91292396914600
H           58.88725379487371       -8.87141339016282        3.63851449570232
H           57.62759425364577       -9.22010587509632        2.56666861702015
H           60.04065006558854       -6.77706232586041        3.65293732540602
H           60.03043520258868       -4.43172869574587        2.89575364026629
H           55.91639451257132       -3.99476391651206        2.16536063980807
H           54.01007300598626       -2.20332501659201        1.50328821044926
Co          76.95059137321307       -0.03171701909535       -0.01806616480297
C           73.55877228084361       -0.04824084935626       -0.06826004033219
C           74.24352774025081        1.01846837312070       -0.65976055921184
C           73.58812666661599        2.11669504565177       -1.29528818307699
C           74.53890568341593        3.05477115424172       -1.52502731084355
C           75.77510899696402        2.51887744317005       -1.04138523023114
N           75.58582846526133        1.24650150540648       -0.55251738265248
C           76.94635123517254        3.25304769725713       -0.91091908514817
C           76.94699052746060        4.68342071492482       -1.29603176421015
C           76.72717299226393        5.06336571841542       -2.62175502697331
C           76.73674662543746        6.39797855295954       -2.98647931622718
C           76.96403012519971        7.38621100454728       -2.02495893450329
N           76.92663662323339        8.72352149301410       -2.37690779817967
C           77.17136551965179        7.01340204899485       -0.69421672260664
C           77.17060893983496        5.67605630804684       -0.33953030589136
C           78.12390793024723        2.68284704910056       -0.44479742299624
C           79.36797897905954        3.38430001775793       -0.34609548772977
C           80.32653565405825        2.45274458257978       -0.12177081218579
N           78.31541697725875        1.33747891806214       -0.22881812493787
C           79.66544807570428        1.18776733171868       -0.08388503497772
C           80.34187770545742       -0.03586050694119       -0.05208810882783
C           79.65831230772892       -1.25270268605540        0.03132828835784
C           80.30515907692208       -2.52511415469147        0.04776650952585
C           79.35237759708987       -3.43991934016019        0.35573444575359
C           78.12961359277111       -2.71833602219714        0.53329858649702
N           78.31830160240166       -1.38360443157284        0.26505554947999
C           76.95345595071797       -3.27558777822498        1.02241118632139
C           76.96214347206089       -4.68020629007214        1.47987767534497
C           76.07706213321019       -5.61586220866020        0.93650939834436
C           76.09002870998914       -6.93302903630538        1.35763691800964
C           76.99136002407255       -7.34601273259526        2.34294794361500
N           76.97414101783137       -8.64983519304754        2.80169365200027
C           77.87087759895245       -6.41388105845498        2.90105637326588
C           77.85956982533813       -5.10148100017936        2.46555317800053
C           75.77163221246242       -2.54860036458121        1.07857017556329
C           74.53681046053237       -3.05201022247265        1.59889211687914
C           73.57782989230373       -2.15230614825273        1.26809443837112
C           74.23437990787734       -1.09449646743269        0.56923750203381
N           75.58162224881681       -1.30790666122148        0.51364580217884
H           72.53197056332550        2.16026218975675       -1.50741890766811
H           74.41799816958114        4.03294943518998       -1.96086797355658
H           76.56923336556717        4.30107613478497       -3.37675289345365
H           76.57243817823688        6.68141102828432       -4.02032016155798
H           77.10029638440734        8.91443364280776       -3.35068635118516
H           77.40728175654360        9.34524272083577       -1.74659042821139
H           77.33443861542302        7.77671360908236        0.05870868561268
H           77.32469700780554        5.39440613380294        0.69632642800211
H           79.48763911586315        4.44880198599717       -0.46462963965942
H           81.38962563302593        2.59210557475160       -0.00867347318246
H           81.35437501205223       -2.68178166526472       -0.14461748650956
H           79.45861997107413       -4.50823060070360        0.45165779622007
H           75.38943567747948       -5.30924647394627        0.15594657797577
H           75.40444384130662       -7.65134609962356        0.92155212299434
H           77.82299224256920       -8.96043694892659        3.24620920369204
H           76.57176702409529       -9.32278755764927        2.16937001060163
H           78.56257253824639       -6.72506076696231        3.67621904664755
H           78.53825941503244       -4.38240204001519        2.91103388360046
H           74.42651077949688       -3.97510654795873        2.14416278649201
H           72.51960423433100       -2.18848625224493        1.47116438575601
