248
 energy: -429.968285491285 gnorm: 0.000647370702 xtb: 6.5.1 (b24c23e)
Cu          37.88138880555698        0.46583489509902        0.30984156099629
C           34.48013755689503        0.32844272492163        0.21142683476131
C           35.15460483056088       -0.88318757926943        0.18727494743371
C           34.52016101295409       -2.16975031100590        0.16632395342916
C           35.50934776490123       -3.09757041601581        0.15042334172059
C           36.75821369784560       -2.38561569093154        0.15032113892238
N           36.51108067927682       -1.04273941872441        0.17995389819929
C           38.02219019359646       -2.98010999664110        0.14330050573479
C           38.08902855404342       -4.46047794423782        0.06014695842595
C           37.61241017647006       -5.12781857800600       -1.00114933881450
C           37.65806938628409       -6.63058791780689       -1.09936371369396
N           38.59944078485373       -7.19649079413254       -0.12930812770027
C           38.90332146775506       -6.51932655609659        1.02333391172991
C           38.70924244881055       -5.19511831259498        1.15373346293039
C           39.23171303385895       -2.28554759214699        0.20924915276032
C           40.53016863827265       -2.89460738363513        0.15486898670791
C           41.44378566828730       -1.89408281599702        0.23259829408688
N           39.37523177373293       -0.92671634692969        0.30978984728467
C           40.71119719280290       -0.66719552052761        0.32656185391391
C           41.30497110892782        0.60356005831192        0.41922903749347
C           40.60694349804000        1.82253287071829        0.46630121609654
C           41.23140109134336        3.10463870374679        0.59651015685134
C           40.23752360387728        4.02879349282679        0.60609497022406
C           38.99800602322619        3.31694461290393        0.47597217746720
N           39.25603667551130        1.97378480496957        0.39630599178712
C           37.73481756998944        3.91198351780535        0.46297325949038
C           37.67739295846418        5.39339539945267        0.53473292118035
C           37.08679592015648        6.02651433692509        1.55901652998094
C           37.00373903865717        7.52852970106705        1.64318671272147
N           37.94499594728554        8.16468105754088        0.71749852600020
C           38.37174448853523        7.50580207016754       -0.40625403181811
C           38.29807923774100        6.16883184560834       -0.52997702494230
C           36.52516669310288        3.21755960418647        0.38737101788238
C           35.22500828029676        3.82634045349764        0.31209330910692
C           34.31617323161793        2.82168061269564        0.24700743770332
C           35.05230314914116        1.59050475450529        0.26935037572304
N           36.38890694551907        1.85906148500797        0.35244134100254
H           33.39620020432504        0.28461197575423        0.18074771006466
H           33.45316919577877       -2.32872809409701        0.17397773210167
H           35.40971714326719       -4.17110359504383        0.15152752968654
H           37.15409851897380       -4.61540503843158       -1.83901744851779
H           37.98279897570151       -6.93439359883623       -2.10370893036995
H           36.64866544365702       -7.05462878091762       -0.94059692533454
H           38.55374800257541       -8.20259514910058       -0.05639954911196
H           39.38938250977184       -7.11767608133239        1.78736807473706
H           39.00182584081762       -4.66803165394904        2.05072624663058
H           40.71457198933008       -3.95247943330661        0.05988787437138
H           42.51940338266523       -1.96940191835694        0.22008650739973
H           42.29466267695734        3.26585611325029        0.67608959886683
H           40.32997645605331        5.09856124966824        0.70206739792641
H           36.62330317799809        5.48384715338217        2.37470238084164
H           37.24861905091490        7.86458184864655        2.65991061427369
H           35.97267777285647        7.86650860500763        1.42750894014415
H           37.81773390833938        9.16240425776565        0.62832386551940
H           38.84896104648287        8.13685683033335       -1.14926463805574
H           38.68611458221726        5.66108185815086       -1.40154846043688
H           35.03929172554568        4.88827688756644        0.29843688194445
H           33.24198306590825        2.89401624789786        0.17845700319239
Cu          85.97911254483189        0.37065464638531        0.31901185321717
C           89.38310237678549        0.44301069409254        0.25098157466768
C           88.73744508633018        1.65286366109150        0.45833718489574
C           89.40157795496675        2.90439620701597        0.68400475483968
C           88.43422998570610        3.84249985704890        0.83842129458462
C           87.16934195591271        3.17409216515929        0.69726168212201
N           87.38519742608850        1.84390346652725        0.47582425092651
C           85.91928868975019        3.79040365423509        0.79049097729578
C           85.88617966771653        5.26150072437325        0.98403786956114
C           86.39257488827789        6.10340905398627        0.07102362542701
C           86.37977842439443        7.59889745135083        0.25372628372564
N           85.43936866161096        7.99661696016282        1.30489890722866
C           85.10358394957603        7.12353365740028        2.30701978864123
C           85.26605902358497        5.79392613570585        2.18914132482092
C           84.69358079315597        3.12562942020215        0.71602162701081
C           83.41013423017525        3.76636800926566        0.76268504706211
C           82.47298482697302        2.79103663911553        0.65256690561907
N           84.51773204975903        1.77511458533872        0.56744920877302
C           83.17602012706756        1.54932442343115        0.53006082254869
C           82.55244490864015        0.29570902422300        0.40288348463937
C           83.22193440824984       -0.92887179950299        0.23909941448418
C           82.56825867129321       -2.19929544216749        0.14169139386102
C           83.54024597767979       -3.13167126117298       -0.02570258677704
C           84.79556891080622       -2.43566326572002       -0.03630756778890
N           84.56881926708553       -1.09535873158324        0.13314483218017
C           86.04421964884983       -3.04556762610084       -0.17491845579690
C           86.06685880149240       -4.51380954116536       -0.39054943499621
C           86.65351862311917       -5.34621833625690        0.48229685752103
C           86.70457555923639       -6.83708481276361        0.27062078068545
N           85.73964145969813       -7.26190592827982       -0.74718028338540
C           85.31547615225250       -6.38815288187770       -1.71449760973770
C           85.41753647803246       -5.05447457881138       -1.57643938037476
C           87.26990195994070       -2.37694634597729       -0.12788155689712
C           88.55540561214438       -2.98965808372857       -0.32544940830345
C           89.48783933593562       -2.01300254513526       -0.19803100221432
C           88.78103596510644       -0.79241393030241        0.06421900343034
N           87.43833847147768       -1.04054654386009        0.09775944252848
H           90.46793116034179        0.46567781188398        0.23019657162380
H           90.47183651331635        3.03303019093195        0.72661355036411
H           88.55856465967433        4.89387728161965        1.04227483006497
H           86.85209612817692        5.74535776969088       -0.84291917694779
H           86.07333820482187        8.09116588615993       -0.67919888806291
H           87.39594025297735        7.96290257122029        0.49609225682715
H           85.50702331350362        8.96982574458356        1.56546480576403
H           84.62008260021345        7.58030285850952        3.16469276587358
H           84.94855102732757        5.11585225743058        2.96851708941121
H           83.25107565897730        4.82823533237661        0.85878249455583
H           81.39966479816653        2.89427202068981        0.64707364035655
H           81.50180481702124       -2.34828816293794        0.20016582242462
H           83.42335151490582       -4.19882413488892       -0.12437206984915
H           87.13753917643950       -4.98246101966367        1.38121382915332
H           86.46375697724717       -7.36066366404272        1.20576548223935
H           87.72566411244645       -7.14602891731762       -0.02240017539913
H           85.84383759393764       -8.22535592860270       -1.03089556277148
H           84.81643986932707       -6.85257591172640       -2.55907479443178
H           85.03156048839161       -4.37896004308458       -2.32659462188696
H           88.71635987018399       -4.03277973486721       -0.54533368984809
H           90.56008817276309       -2.09593523160098       -0.28304612754881
C           46.50364729725454        0.75555522534900        0.58622739934179
C           45.27662468469453        0.72862384415421        0.55142427921657
C           43.93219642004922        0.69260531992331        0.51068457043757
C           42.71006581170406        0.65663023114723        0.46775858113521
C           47.84836104519406        0.78445184551229        0.61589592142688
C           49.07161536943569        0.80256370261926        0.63922023880075
C           62.54745988274383        0.91622533354965        0.71151877582690
C           61.31895234791905        0.93115717536908        0.70473041164088
C           59.97489917651876        0.94053282468592        0.69902310088797
C           58.75073908713234        0.94483494039441        0.69578928199116
C           63.89143463164249        0.89722833897211        0.71807552133106
C           65.11543696285585        0.87512464589152        0.72754581559666
C           78.57813534813042        0.30290078255403        0.51810658677722
C           77.35182326669334        0.34977280513423        0.55815383498119
C           76.00813080973826        0.41227745360970        0.59589394261398
C           74.78712126545787        0.48271201678239        0.63216495677331
C           79.92310310682295        0.27853129513489        0.47709756770346
C           81.14597846340550        0.27172919754737        0.44339833536815
Cu          53.91119984102002        0.89055710321060        0.68029974369944
C           50.47734010156915        0.83132918541907        0.65614323867057
C           51.11877879007599        1.61317158637733       -0.32127835499572
C           50.43435346257994        2.41523668832976       -1.28986702486546
C           51.38593499209806        3.00147138852209       -2.06045550343944
C           52.65838689340664        2.55286396189074       -1.57199152853427
N           52.46272973346620        1.71474598746012       -0.50619671815191
C           53.89501559314294        2.92580083434013       -2.10147485604807
C           53.89305281865681        3.79517352748143       -3.30449253012061
C           53.36395811342148        3.38424653333032       -4.46662745362542
C           53.39841967624864        4.22886850890810       -5.71309272332296
N           53.68362890357509        5.63021786259173       -5.39420797971693
C           54.36760709986742        5.96232979429626       -4.25380069661836
C           54.47770262813496        5.12460037779530       -3.20759762369023
C           55.13748805762418        2.54343349021873       -1.59204723564696
C           56.40273695609968        2.87741558885125       -2.18022005950557
C           57.36413000502958        2.31948036853491       -1.40047906649152
N           55.34674224974882        1.78133911774219       -0.47330862295655
C           56.69235681975646        1.63664676795943       -0.33638258202012
C           57.34611380951448        0.93666126241183        0.69387435135343
C           56.70208286271639        0.22443605806045        1.72252507142879
C           57.38366960269033       -0.43330766952859        2.79558924266329
C           56.43207942134489       -1.01449409539226        3.57036817153698
C           55.16265073661778       -0.72344324781549        2.96821521438445
N           55.35993761348885        0.04280864602262        1.84964574227242
C           53.92687676682163       -1.15136106198004        3.45827709737660
C           53.92989443326026       -2.03818574455199        4.64821093558255
C           54.51348419291889       -3.24567559123809        4.62405271277699
C           54.54272105695183       -4.15518147225482        5.82465279264243
N           53.56345076008192       -3.73674159839946        6.83141407074347
C           53.14278861663161       -2.43366629182311        6.89622996437755
C           53.26329246100266       -1.58446602406318        5.86058346705651
C           52.68538109076640       -0.81250098709726        2.91569191567171
C           51.42231029093110       -1.30437801251792        3.38671316857243
C           50.46184354319988       -0.75239611495657        2.60222155440707
C           51.13161830896311        0.07384865238184        1.64345811367576
N           52.47568485224289        0.02018485486761        1.84864914763246
H           49.36309436641287        2.51751119545860       -1.35860523159378
H           51.24399704541590        3.68678312860646       -2.88033016658866
H           52.94766931631493        2.39043459818011       -4.58370180446329
H           54.15496629476308        3.83802652732283       -6.41949081657115
H           52.42687897980525        4.18782583647870       -6.22402258421445
H           53.86043057464980        6.20582673133979       -6.20478648677928
H           54.73869008136439        6.98196319068682       -4.22814775515633
H           54.95400158032743        5.43222053646685       -2.28754959004632
H           56.53396938441669        3.45482480840089       -3.08128092077785
H           58.43407247201107        2.35602419149001       -1.52993659757847
H           58.45276201572970       -0.43663921807010        2.93639925621937
H           56.57343262997524       -1.57833978120992        4.47812089058574
H           55.01021947554693       -3.62182753055821        3.73725973405537
H           55.55701515934018       -4.17149336225033        6.26589081484734
H           54.30306258035056       -5.18460917935000        5.52558045135001
H           53.65343237415453       -4.22059082427324        7.71313269189856
H           52.63066718950388       -2.16674646482298        7.81520141689748
H           52.87999299072120       -0.57527279932341        5.91152685467894
H           51.29194063848757       -1.99133844096551        4.20721904942577
H           49.39379922312242       -0.89117205429639        2.65582309268861
Cu          69.95344302623256        0.74104946545985        0.72495370606563
C           66.51983262156249        0.84604499156780        0.73302862618244
C           67.18783235328607        1.57433670409295       -0.26867751692213
C           66.53217857745472        2.39230058667771       -1.24368412348183
C           67.50377164295524        2.93665326713610       -2.02017798621471
C           68.75914680299175        2.44176855381126       -1.53229474151819
N           68.53356323703129        1.61947083544928       -0.45960494807905
C           70.00822985126571        2.75975585020832       -2.06769060834856
C           70.04330678574478        3.64383726416901       -3.25947722643811
C           69.49077752137622        3.27983220606603       -4.42614087173455
C           69.56360543085647        4.14367224142404       -5.65784952284837
N           69.91789848162632        5.52383876707070       -5.31610862002598
C           70.62360701718647        5.80067490465296       -4.17384869438964
C           70.69513764779110        4.94030220431110       -3.14299427403681
C           71.23473425790404        2.30978102618320       -1.57427034815745
C           72.50714920679184        2.57092642090403       -2.18369521577370
C           73.44676251974460        1.94964299285979       -1.42589017085766
N           71.41768723652771        1.53226546899835       -0.46212165393489
C           72.75460712239037        1.30439281120583       -0.35116462000312
C           73.38343509834431        0.56425715644262        0.66558833993051
C           72.71962261203635       -0.08835404515641        1.71969568739191
C           73.38237440612808       -0.76422945210986        2.79359078290281
C           72.41399793922051       -1.24689180741098        3.61369409396113
C           71.15196655240585       -0.88223642895901        3.03611033468123
N           71.37177906290725       -0.16924948454094        1.88718631225717
C           69.90251541896311       -1.20085369072080        3.57251684914760
C           69.87209511172082       -2.01957443527765        4.81017601388159
C           70.36409302734891       -3.26662149431387        4.84691640103582
C           70.35760459533127       -4.10298162459684        6.10008302319204
N           69.44109643645496       -3.55212490650400        7.10233106164102
C           69.11747599924632       -2.22005509613338        7.09517850064376
C           69.27157607778875       -1.44619614372017        6.00645960551986
C           68.67334126013829       -0.80975644647357        3.03733151579881
C           67.39351249296556       -1.20976086767273        3.54809992831201
C           66.45169807678768       -0.64738480823748        2.74842423914054
C           67.14933959121227        0.09851571036621        1.74481907544928
N           68.49135092117562       -0.01600374751330        1.93592574675528
H           65.46546431125088        2.53537508539062       -1.31055822015855
H           67.38595555564488        3.62123451390635       -2.84446991873849
H           69.02562062115975        2.31001022352924       -4.55911838047745
H           70.29838894168310        3.72859447829764       -6.37332674223144
H           68.59000939559002        4.15930772692835       -6.16616809012011
H           70.12319317098867        6.10246184098290       -6.11787456469704
H           71.04644001551968        6.79943233793070       -4.13258051018055
H           71.19131179198862        5.20653527471496       -2.22051239808299
H           72.65651137978044        3.14486587907566       -3.08415269745105
H           74.51420139424086        1.92103390938143       -1.57616306665080
H           74.45209671821073       -0.84239016942892        2.90517478371243
H           72.54040529081509       -1.79127103867706        4.53542811052292
H           70.80862988549339       -3.73113415569213        3.97445312094811
H           71.37955526200027       -4.17116601742430        6.51795650273580
H           70.03284956032722       -5.12682504686527        5.87002818897249
H           69.52208453009521       -3.98611115542991        8.01048616630080
H           68.65053329480529       -1.86108035071360        8.00684349531327
H           68.96243736908211       -0.41061158038208        6.00244049778439
H           67.23991894297669       -1.84911584439672        4.40238103613982
H           65.37883645897537       -0.72762743408762        2.82146067154847
