122
 energy: -207.258648614292 gnorm: 0.000504487868 xtb: 6.5.1 (b24c23e)
Co          12.66907133878479       -0.03616631246316       -0.01060320012402
C            9.29842410711657       -0.05622064832699       -0.14954335496119
C            9.95279470441797       -1.24655502920861        0.08558052052619
C            9.28779249401016       -2.49375704557538        0.31059377751930
C           10.24608577165428       -3.45040688751866        0.30717554552862
C           11.49408302643044       -2.78685056557421        0.06516777691440
N           11.31028882054178       -1.42895855872380        0.00015769783219
C           12.69163305065604       -3.44192362896916       -0.18947100936123
C           12.70258804007601       -4.91938007023941       -0.28425713186826
C           11.95221170516539       -5.56959271473691       -1.18868958799711
C           11.93507422920871       -7.07014488355433       -1.30386194867778
N           13.04687814970569       -7.67395142563598       -0.56740430859627
C           13.66998890815584       -7.00694480162558        0.45019231449874
C           13.56306356725434       -5.67453391689879        0.61195885506109
C           13.87986488287113       -2.74783654181145       -0.36687260973203
C           15.13164078754798       -3.36620747295277       -0.68449880283962
C           16.07761290624422       -2.39973263258937       -0.60148456101421
N           14.05097776333290       -1.39867796396646       -0.15825180809224
C           15.40007808791786       -1.19413559348177       -0.24298574173434
C           16.05955777594212       -0.01452830461989        0.10967055185059
C           15.36202489896731        1.15488655528667        0.41965117813542
C           15.99694490965657        2.36738971263022        0.82907327243588
C           15.03450117657540        3.32093887659372        0.85079846694215
C           13.81637804679995        2.68810572658897        0.44318559903785
N           14.01939728289594        1.34219542863955        0.24206890604086
C           12.63632362500170        3.36868099855110        0.18000094342798
C           12.62191062906360        4.84614662465253        0.27746601274282
C           11.80084517270938        5.48523462073989        1.12651699866703
C           11.75458064392525        6.98514099483034        1.24161354830342
N           12.89561262876211        7.60837633633252        0.56877300979477
C           13.60038192728734        6.94831524901420       -0.39822386582284
C           13.53083022100915        5.61319188802824       -0.55853517899032
C           11.47031076558872        2.70111472263970       -0.17032179081807
C           10.23810068436419        3.35134582792260       -0.50983429016876
C            9.29575521358796        2.38315351431378       -0.59944733185441
C            9.95543756251416        1.14255129502613       -0.32689995383908
N           11.29880675555459        1.34082847834496       -0.12797163790544
H            8.21568018256454       -0.06293892328706       -0.19525518654391
H            8.22329786013146       -2.60346005138952        0.44534769702443
H           10.13168048819007       -4.51250694061580        0.45225876595058
H           11.30852680888414       -5.03983395242200       -1.88117265960782
H           12.01965638551719       -7.37053589522793       -2.35765007550895
H           10.97460139347316       -7.46989889799067       -0.92876127725942
H           13.00412488242481       -8.67965532199731       -0.49670117890129
H           14.31465710313161       -7.62184299736726        1.07000236173707
H           14.09881388193232       -5.15948536757300        1.39653674192287
H           15.25939187740977       -4.40756684483113       -0.93194590686688
H           17.14145031047604       -2.48142453768253       -0.75652039915756
H           17.04637263103432        2.46135595298029        1.05810971628162
H           15.13018789179317        4.36266833722612        1.11095351405745
H           11.11695813168966        4.94604802022918        1.77156717766949
H           11.77506210877302        7.28506005467979        2.29887129351389
H           10.81058292782341        7.37067016365491        0.81396931646025
H           12.83770643289257        8.61260994282844        0.48932289379156
H           14.27335719080094        7.57283293736638       -0.97696241060438
H           14.12937921374734        5.10506016852868       -1.30106056949671
H           10.12239888597483        4.41311507304348       -0.65635768986687
H            8.24476359613965        2.48091863871980       -0.82130629097099
Co          28.62111953986887        0.03720518705717       -0.00325357943678
C           31.99187781315161        0.08471297948279       -0.13134352599235
C           31.33766813622553        1.19718444355418        0.35321360363467
C           32.00284380857013        2.36667728069213        0.84127946644376
C           31.04490955526414        3.30240587670437        1.04203304080308
C           29.79695644402729        2.70695790530521        0.66201020255086
N           29.98034566226665        1.39451398365436        0.30742447337610
C           28.59983309144062        3.40197386550315        0.55274691300214
C           28.58925599548120        4.86531567756159        0.77749632363200
C           29.34056804957690        5.69442687925391        0.03456212064455
C           29.35806778031374        7.18466975246153        0.24458406845158
N           28.24568143718492        7.61648893445370        1.09262752365023
C           27.62151040142723        6.74663139559964        1.94255871577479
C           27.72810349941207        5.41054599539393        1.81432598757000
C           27.41159879976670        2.76261495239644        0.22954518397685
C           26.16026285203437        3.43529428621786        0.05096069565488
C           25.21390786510206        2.47394159829981       -0.07567874796646
N           27.23990325322466        1.40018125641174        0.14393489047406
C           25.89078508218776        1.21919422207948        0.01642319030647
C           25.23060369598792       -0.00819765905806        0.10768650719410
C           25.92748130699797       -1.21728337039303        0.15998312683902
C           25.29196689326177       -2.48911600632044        0.29953640649202
C           26.25405108619443       -3.42553735907059        0.11634504042126
C           27.47257160217315       -2.72050787270269       -0.14552708046528
N           27.27011006360573       -1.36271761341022       -0.05311613374149
C           28.65254803539634       -3.32913471445792       -0.54828144780511
C           28.66652709717674       -4.79310012693874       -0.77003993602292
C           29.48731382583179       -5.59960767713684       -0.07769706285881
C           29.53307566632575       -7.08934286626348       -0.28668629405107
N           28.39217463774372       -7.55349450386377       -1.07789484572014
C           27.68762010937918       -6.70122626754463       -1.88082704771868
C           27.75745990613096       -5.36280095220854       -1.75107286893921
C           29.81895396942798       -2.60236936508441       -0.74648576622086
C           31.05119078663689       -3.16505077476690       -1.21701877951339
C           31.99402787702322       -2.20082725788375       -1.09544872846927
C           31.33460395534832       -1.04749834376564       -0.56295766880527
N           29.99096243220431       -1.28310856175180       -0.41249463973405
H           33.07467836184765        0.10040402365021       -0.17336094880436
H           33.06721548469231        2.44426744166674        0.99761241792069
H           31.15956884144027        4.30862167194496        1.41160165980973
H           29.98477955548233        5.32564683147844       -0.75505583414154
H           29.27451136017437        7.70454917838726       -0.72009614422113
H           30.31825653374791        7.49412835176861        0.69767578992849
H           28.28835103205973        8.58354280404604        1.37766177274565
H           26.97639707765232        7.21418926428544        2.67949581186832
H           27.19158775906307        4.73912220203926        2.46945908250479
H           26.03307237526012        4.50555465805258        0.03233742680174
H           24.15019942516861        2.58741122047085       -0.21029109478387
H           24.24242607963576       -2.62964629082523        0.50274378500054
H           26.15782594056250       -4.49878102661773        0.14679305946752
H           30.17128584949182       -5.21142884497318        0.66796927847693
H           29.51203095038559       -7.60883145051020        0.68175025074633
H           30.47715466997396       -7.37464559099414       -0.78663822614533
H           28.44998234364326       -8.51730011003466       -1.37095673718951
H           27.01457511571606       -7.18694638904555       -2.58007303336987
H           27.15906791661687       -4.70711692256072       -2.36736089725056
H           31.16654520753462       -4.17048395564454       -1.58851197362298
H           33.04517999796490       -2.24921430398627       -1.33229378220877
C           21.25910452127862       -0.02652876596033        0.18020535491636
C           20.03101146981534       -0.01585686361450        0.18262529718774
C           18.68636299530691       -0.01343439767183        0.17007199222816
C           17.46292909201366       -0.00573098232514        0.14879846266553
C           22.60374159633949       -0.02523380119599        0.16664891840909
C           23.82722998767793       -0.02453354180322        0.14392728915781
