116
 energy: -197.942782488699 gnorm: 0.000378213036 xtb: 6.5.1 (b24c23e)
Ni          14.05307556771579       -0.04760122445121       -0.01508021086912
C           10.66001031058696       -0.06920630884483       -0.03167945960642
C           11.31533807695937       -1.26723620228854       -0.22573631748753
C           10.63969457190774       -2.51367089707929       -0.42066673897514
C           11.59560516985275       -3.47090460238386       -0.46112927896746
C           12.85601034570603       -2.80685576042392       -0.30021305635750
N           12.67431040901363       -1.45201948438646       -0.17479483055060
C           14.07041963294336       -3.47084597829155       -0.19105149564587
C           15.27745522386153       -2.80697703400113       -0.02286021077485
C           16.54232069516417       -3.47191113232476        0.06312643051908
C           17.49056114428767       -2.50572536234551        0.10582063386055
N           15.45057687964419       -1.44078235074850       -0.01793633698004
C           16.80422382398424       -1.25476850156859        0.04043326749278
C           17.46528884522334       -0.02568037605225       -0.02804453353427
C           16.78733955133389        1.19480472847553       -0.08430964328691
C           17.45355086671061        2.45386663616422       -0.18612351355597
C           16.49321512964940        3.40754378999774       -0.12679164859088
C           15.24280241202943        2.72670045449797        0.02159510340821
C           14.02715356415488        3.37499428332170        0.19394028578614
C           14.01592852332907        4.85514270133821        0.28371290110102
C           13.32767640973302        5.61489174017625       -0.66317024917545
C           13.31797401305930        6.99901257546517       -0.57845576637070
C           13.99068857441939        7.64000637768324        0.45298742833095
C           14.67678398164177        6.89094303741663        1.39932076698229
C           14.69240074566885        5.50676759314445        1.31571769363274
C           12.82029257142804        2.69284214734505        0.28004555187872
C           11.55476449896811        3.33123380471537        0.49517735659228
C           10.61009556410164        2.36468381208705        0.42025074370639
C           11.29977500870063        1.13526064688485        0.17469868837279
N           12.65608733414214        1.33892414759973        0.12366126711855
N           15.43318523973207        1.36313333618556        0.00918013028636
C           14.07903113171812       -4.95401956634054       -0.25936267607023
C           13.74426625941320       -5.60755896683346       -1.44523943156349
C           13.75644367906888       -6.99308968157750       -1.50800187383640
C           14.09723829337048       -7.73956397723796       -0.38830190434498
C           14.42870456778087       -7.09528368933767        0.79588067558239
C           14.42275877114047       -5.70987929129306        0.86139705073200
H            9.57624484397918       -0.07619034025381       -0.03183036932439
H            9.56970267846808       -2.62261534307245       -0.49982256728520
H           11.47149363775145       -4.53554421020857       -0.57509564644143
H           16.67728298177278       -4.54110702160028        0.07290685281262
H           18.56155709496091       -2.61398494273343        0.16476407995455
H           18.51964385222416        2.57611903233339       -0.28972863231909
H           16.61043276140843        4.47737455079999       -0.18328016337569
H           12.81235524772839        5.11599751963496       -1.47642999031730
H           12.78323632266841        7.57970401596723       -1.32195514290000
H           13.98036733195365        8.72204720322388        0.51912606606539
H           15.20202866166758        7.38695604702548        2.20802094283729
H           15.21853049750231        4.92247188750870        2.06244991601348
H           11.42042367229723        4.38418567002796        0.68247062641311
H            9.54032995958458        2.45544197929752        0.52202115280327
H           13.48784877656133       -5.02472471518264       -2.32291038152383
H           13.49954181693634       -7.49178725913012       -2.43604846724548
H           14.10462479162555       -8.82249623056294       -0.43852271916069
H           14.69304520172670       -7.67424387537677        1.67387136562503
H           14.67292124645914       -5.20727406349165        1.78909044349776
Ni          27.48165571304146        0.04882044881929       -0.01242022817506
C           30.87444612323364        0.07110981064859       -0.02707105887690
C           30.21913855470720        1.27599878983411       -0.17290907264491
C           30.89447480488751        2.52939050248635       -0.31796975509829
C           29.93849382880608        3.48743031374075       -0.31800863066098
C           28.67835726931484        2.81735747293798       -0.18187082276654
N           28.86023647638368        1.45850384423563       -0.11292612387396
C           27.46443022649792        3.47614981818127       -0.04051299732604
C           26.25785013988481        2.80568910853465        0.10310146894589
C           24.99332497055952        3.46606614192682        0.22264120209683
C           24.04501015575318        2.49897388396894        0.22376416707752
N           26.08449269163234        1.44066192953672        0.04701944496454
C           24.73094478547886        1.25224942694976        0.09962294768287
C           24.06971693343765        0.02773436412303       -0.02573589302443
C           24.74771927705847       -1.18882246946164       -0.13885419255574
C           24.08178930969002       -2.44186420493143       -0.29958175517337
C           25.04208052267575       -3.39730854118533       -0.28226169550515
C           26.29216909412551       -2.72406280730746       -0.10036473990151
C           27.50741807667091       -3.37936113613182        0.04679780334458
C           27.51852576964320       -4.86195239914848        0.07189068346096
C           28.21212154668785       -5.57978105375889       -0.90338875773599
C           28.22154786336875       -6.96627994994302       -0.87907261927606
C           27.54312860605430       -7.65161181230303        0.11960224582253
C           26.85168247249696       -6.94447120738223        1.09387647908150
C           26.83644363773842       -5.55797356879451        1.07070999349602
C           28.71387949885374       -2.70145481112113        0.16624604599524
C           29.97897887025042       -3.34818811315884        0.35767041944995
C           30.92369249353291       -2.37928963308726        0.32554839078518
C           30.23446553809545       -1.14071688116183        0.12976810585573
N           28.87826878772632       -1.34212790932301        0.06766316857134
N           26.10173157748014       -1.36132111395888       -0.05133503858306
C           27.45606625887833        4.96090686097597       -0.04498359395273
C           27.78560968259236        5.66493071628852       -1.20304142512905
C           27.77388883618405        7.05189904467551       -1.20573631592920
C           27.43887760759211        7.74939747737457       -0.05320870542803
C           27.11264714278904        7.05466419201110        1.10355504433097
C           27.11804483272247        5.66773721961507        1.10901746297489
H           31.95820924841884        0.07803054299213       -0.02640042398631
H           31.96434345621837        2.64156669346265       -0.39424684107046
H           30.06241331570480        4.55583962865013       -0.38874875162513
H           24.85859012249341        4.53370973451436        0.28157681094441
H           22.97418250174096        2.60450859813008        0.29032854613779
H           23.01588924594887       -2.55922777851166       -0.41053059302422
H           24.92492047887574       -4.46341050968310       -0.38795356548460
H           28.73182476221895       -5.04599351581827       -1.69130683654192
H           28.76054026079853       -7.51403664273493       -1.64417201324326
H           27.55316853655125       -8.73550925646038        0.13848693802011
H           26.32192949981901       -7.47522264024793        1.87717717514081
H           26.30620705072722       -5.00678001081971        1.83937574645524
H           30.11304513004304       -4.40803729984580        0.50111910632953
H           31.99322508008682       -2.47419248361956        0.42596952468827
H           28.03760931560358        5.12055811869785       -2.10631690274635
H           28.02701854213264        7.59021140136934       -2.11249000548578
H           27.43232455204556        8.83350567813634       -0.05643689425235
H           26.85292897528085        7.59520019344048        2.00702710698372
H           26.87185293024130        5.12550153390813        2.01520634673966
C           20.09231368868782       -0.00455765672059       -0.04394144878299
C           18.87103142640279       -0.01599416562307       -0.03809144014847
C           21.44278461318276        0.00699075477864       -0.04282587815064
C           22.66400552483734        0.01834399839214       -0.03651452418977
