402
 energy: -774.815703644123 gnorm: 0.000917129105 xtb: 6.5.1 (b24c23e)
C           65.37050932978515       -0.10765897064578       -0.00138269868779
C           65.98721064509925       -1.31819609596124        0.28677866200282
C           65.34219289783879       -2.56012474500719        0.54693592574912
C           66.30883153083505       -3.49319757845330        0.79430082404913
C           67.57577964481617       -2.84801361244198        0.70474512008116
N           67.33135790358435       -1.54307160075760        0.38615831364688
C           68.84406327888341       -3.41515408986386        0.87706354378030
C           68.89038748440046       -4.84986925363445        1.24148618656613
C           69.54468523218711       -5.76603826911177        0.41156750247550
C           69.59349833875456       -7.10715306946922        0.74455168185495
C           68.98595958847106       -7.53715997236416        1.92097626870458
N           69.03654070508856       -8.94384575588080        2.27719678552808
O           69.61987345378989       -9.68758673893206        1.53077725218833
O           68.49155811862470       -9.28081651988137        3.29706139974038
C           68.33084502986968       -6.64183434802721        2.76175509972208
C           68.28366082098674       -5.30337467667551        2.41692739137758
C           70.05532890847346       -2.73262128193656        0.73218062026406
C           71.35676322873334       -3.32388147403095        0.98854533071309
C           72.26849582537676       -2.36118060288408        0.74122674996248
N           70.19751786318753       -1.43136577919728        0.36061644362846
C           71.52266341145366       -1.18246402796596        0.34421862356129
C           72.15019123269029        0.02743372286283       -0.01521427427650
C           71.50703703064153        1.22869505681145       -0.36931566739375
C           72.14512726942873        2.43654776941961       -0.75675150053042
C           71.17382195979903        3.36769750016941       -0.99949317199067
C           69.91174302744811        2.75739738402926       -0.75744217849745
N           70.16460565458311        1.46305471666080       -0.38977501405332
C           68.64429208943604        3.33579241203729       -0.89408971172459
C           68.60307443661029        4.76566714446545       -1.27481154785708
C           67.95763139359339        5.16597040610937       -2.44932181392250
C           67.92274928412003        6.49941820891630       -2.81359749756519
C           68.53435359176748        7.44389925458158       -1.99385381020439
N           68.50192593337343        8.84520666694111       -2.37189712666514
O           67.93003481572214        9.13490393494529       -3.39154920219505
O           69.05050233908642        9.63220833049072       -1.64345541347686
C           69.17822356935005        7.06753356488073       -0.81837465442243
C           69.21190180684947        5.73087371808147       -0.46598151064283
C           67.43179043434992        2.66446443360492       -0.69895281789568
C           66.12207565988068        3.29284526674351       -0.78555854059264
C           65.21765012007826        2.32524498952783       -0.53619682960771
C           65.97340631545305        1.11015904117997       -0.28554321894417
N           67.30365686001194        1.35518375894472       -0.38122772257647
H           64.28535311738122       -0.12497108071949       -0.00191206318863
H           64.27432670779044       -2.70848412824318        0.53611012484042
H           66.16281038935658       -4.53901311410818        1.01049546352310
H           68.05355819916173       -0.84543250526962        0.24106666242720
H           70.00286926840224       -5.42073808005410       -0.50782374769835
H           70.09361178411905       -7.82455829946839        0.10510605289593
H           67.87046015153030       -7.00087867293293        3.67435193206878
H           67.79038299293408       -4.59481672323373        3.07210246030993
H           71.52819323821092       -4.33242329861025        1.32792403560828
H           73.34226149842362       -2.41545801980024        0.82073201006207
H           73.21194471540252        2.56539379415107       -0.84215893096610
H           71.31686975249475        4.38383844694267       -1.32873640622222
H           69.44520871919673        0.78101398466052       -0.17283877500374
H           67.49831587906583        4.41985305901260       -3.08709381105449
H           67.43178434030628        6.81753093829933       -3.72543223866805
H           69.64172806790967        7.82233256051857       -0.19455952983867
H           69.69760407929414        5.42794956736738        0.45433991637326
H           65.94410033503998        4.33548396580858       -0.99384637071998
H           64.14187690394115        2.39723911285240       -0.50833543703261
C          164.98846756439539        0.06144072684150       -0.05659602892145
C          164.37176480034617        1.24781350835794       -0.43202866577629
C          165.01682035619442        2.44619227497411       -0.84904061115261
C          164.05022408195128        3.37349179064757       -1.11736137891771
C          162.78324976993483        2.77441813040547       -0.86172059775364
N          163.02763605022596        1.49195674906419       -0.46214186303600
C          161.51504619903886        3.34896055509570       -1.00820782039940
C          161.46956028387839        4.76654903115507       -1.43471215140074
C          160.81875870641406        5.12545959277746       -2.61951515117802
C          160.77040575609973        6.44705305968392       -3.02326246242787
C          161.37492673591518        7.42090560407817       -2.23323999309507
N          161.32419641167508        8.81078468514224       -2.65026139197018
O          160.74397262656271        9.06497851936958       -3.67456764459999
O          161.86593951663329        9.62430800702333       -1.94638025968684
C          162.02698413584494        7.08535166399226       -1.05006101325131
C          162.07373350271237        5.76000892453530       -0.65786041395539
C          160.30352429052374        2.68947404775184       -0.78180553633392
C          159.00187215292561        3.32707559846232       -0.87271255882707
C          158.09008536632763        2.37540811151865       -0.58607481526170
N          160.16128905529831        1.38435289296965       -0.42403040583331
C          158.83606709545705        1.16259161556076       -0.31059127755964
C          158.20868205488517       -0.05624256998704        0.01738184475048
C          158.85166197838421       -1.26551314316216        0.34320516740694
C          158.21306865605825       -2.49736396889747        0.64490070411489
C          159.18427949382689       -3.42083803196781        0.91549313135540
C          160.44691911018703       -2.77619950219549        0.79663604638804
N          160.19428735290981       -1.47866387180368        0.44012882068362
C          161.71444962012370       -3.34436217360515        0.96996824176503
C          161.75594737438504       -4.76606596166547        1.38028200189541
C          162.39266175209306       -5.71512982727771        0.57392685917211
C          162.42714962226404       -7.04608805359961        0.94715369495903
C          161.82400221339353       -7.43279047787013        2.14078373432343
N          161.85524109816131       -8.82921504138541        2.53659405616696
O          162.41882361169917       -9.60362471644507        1.80624667513776
O          161.31543906577465       -9.12790068164238        3.57112540773740
C          161.18938975133747       -6.50367568402606        2.96052340350580
C          161.15595365148107       -5.17603616643157        2.57540428851657
C          162.92704112347090       -2.67096724659411        0.78270947332104
C          164.23705119595670       -3.25626807948575        1.02561666702118
C          165.14154946317822       -2.29981535425829        0.73667637047298
C          164.38560939354960       -1.12817848938201        0.32893209973357
N          163.05518753319839       -1.38556214325950        0.37919637337524
H          166.07360931711798        0.07520854332870       -0.06850434099009
H          166.08468122798320        2.56762985916751       -0.93503123681347
H          164.19623399165485        4.38123861740567       -1.47080672354384
H          162.30542846561920        0.81939412225247       -0.22676247994274
H          160.36285257214593        4.35650260669580       -3.23212287205912
H          160.27280532873581        6.73356231733574       -3.94194921147372
H          162.48527115865861        7.86260452155874       -0.45043762760440
H          162.56462645339403        5.48911111337556        0.26965132532763
H          158.83024576465300        4.36498967897774       -1.10721848310954
H          157.01617656343416        2.46238947066674       -0.54871150239959
H          157.14595025207458       -2.64984458299818        0.64560994028888
H          159.04069168836691       -4.45969536670190        1.16359689656660
H          160.91397186382648       -0.78477865509403        0.26590413612606
H          162.84531065751005       -5.40447442585669       -0.36043119046174
H          162.91116166852836       -7.78918274324900        0.32487969543191
H          160.73253958444755       -6.82889589712813        3.88746692085961
H          160.67730498667351       -4.44161204144079        3.21271731027828
H          164.41515028501166       -4.25751373277740        1.38331296566630
H          166.21752661370064       -2.34877203764433        0.79255029239954
C           73.55508824136089        0.04907936842300       -0.02623715273063
C           74.77958885852357        0.06325935206028       -0.03971124459752
C           76.12132507793891        0.07129459645292       -0.05672734296274
C           77.35207078096741        0.07186560194073       -0.06919859530191
C           78.68897680558570        0.06720807427003       -0.08071506359320
C           79.91977491821720        0.05752224546954       -0.09131820606898
C           81.26125626315441        0.04651570293839       -0.09922168003998
C           82.48603762451864        0.03072661027158       -0.10461287774210
C           92.13815201537467        0.02310737608164        0.02840264175116
C           93.36280390412465        0.03361854035022        0.05368253144775
C           94.70378666497476        0.04367810436856        0.07163557625029
C           95.93475991945085        0.05118897841660        0.08165441052460
C           97.27117958626404        0.05484405518654        0.08469931972123
C           98.50220731113895        0.05258521454005        0.08118441468889
C           99.84325040794232        0.04548055026676        0.06781851900471
C          101.06804622641754        0.03097806884556        0.05217038177155
C          110.71504822794515       -0.12763824258229       -0.13227203163047
C          111.93989248250843       -0.13787298256083       -0.14537757052601
C          113.28086586104824       -0.14327869995167       -0.15886198103091
C          114.51183895196615       -0.14395160242222       -0.16838041334398
C          115.84818264279356       -0.14098960484583       -0.17304983297933
C          117.07911306358109       -0.12752047023426       -0.17266489272946
C          118.42013795646608       -0.12016921069708       -0.16462484837572
C          119.64494950675952       -0.10843568426966       -0.15075953718107
C          129.29128632065596        0.05564374610597        0.06297047733828
C          130.51600855532470        0.07093691327727        0.08337533857051
C          131.85701565268167        0.08483153886664        0.09584789521566
C          133.08802639566676        0.09107791748538        0.09912782752306
C          134.42446056674947        0.08941203668872        0.09494380153407
C          135.65540759226138        0.08011670565460        0.08414552500559
C          136.99631978473221        0.06272792264962        0.06583987032029
C          138.22090542437778        0.03891271783378        0.04642938510286
C          147.87259027828219       -0.13525532743815       -0.04070192344010
C          149.09737090461155       -0.13976799516728       -0.02779760683837
C          150.43899906988599       -0.14024650755696       -0.01854709266597
C          151.66978617233832       -0.13652048511949       -0.00805499096494
C          153.00674232214013       -0.12811541275842        0.00490978150345
C          154.23738143335811       -0.11650496964010        0.01606203117493
C          155.57926530486273       -0.10379488146441        0.01990044208975
C          156.80366618793909       -0.08067807162629        0.02191975050710
C           83.88994651577886        0.01662931279682       -0.10416510521889
C           84.52561669687894        1.01572031867028       -0.86664381884087
C           83.88369924749323        2.03585039980374       -1.61509007051236
C           84.85309205776538        2.77823287867267       -2.23214773188565
C           86.11554932670607        2.22606431561486       -1.88290715519482
N           85.86751287844736        1.17080471107317       -1.04760781054907
C           87.38071208077444        2.67596657775795       -2.28260729776062
C           87.40629522775779        3.81383368843111       -3.23125101913149
C           88.03159979884269        5.01396625984529       -2.87887633362301
C           88.05674740408480        6.07908358665897       -3.76048871656856
C           87.45515396997678        5.94212934213110       -5.00831303530605
N           87.48004417946763        7.05673532517567       -5.93892331974648
O           86.94003229774384        6.90516267328048       -7.00470443267241
O           88.03760446661994        8.06449564398452       -5.58709072790552
C           86.82934513320984        4.75551128033987       -5.37966593997419
C           86.80524959498025        3.69824424332914       -4.48860306436540
C           88.60093742814828        2.14339635324558       -1.86222683094104
C           89.89419581786075        2.59805548988722       -2.34174907985802
C           90.82079226885536        1.85628338344180       -1.70119079079115
N           88.76272268921068        1.12855046907759       -0.96953769731247
C           90.09191622523902        0.94268214379804       -0.84315450458482
C           90.73492733222746        0.01178096244972       -0.00245035975903
C           90.09882614368441       -0.94436860101617        0.81290951457619
C           90.73934633304754       -1.87217597041810        1.67433748915149
C           89.77040177209160       -2.63724925349009        2.26361501676693
C           88.50977694223978       -2.20248717538241        1.77090575543799
N           88.75832301622506       -1.17061104879733        0.90671344109761
C           87.24555201664508       -2.70098420279416        2.11024899291166
C           87.21926673607715       -3.85366934824625        3.04092806442613
C           87.84269059026272       -5.05648552789584        2.69456338261602
C           87.81837876993490       -6.13568152089115        3.55903079673384
C           87.16996814879602       -6.00958487641941        4.78426654310900
N           87.14546749643220       -7.13835388652575        5.69778505479207
O           86.56963036893835       -6.99504000016096        6.74569298306436
O           87.70254038902569       -8.14819341280744        5.35104444599939
C           86.54564274950955       -4.82027958044927        5.14959855614908
C           86.57105811580445       -3.74895587429127        4.27558399475926
C           86.02588710802092       -2.20179186717832        1.64831518349883
C           84.73514234427448       -2.78164527063432        1.97498087419280
C           83.80794379164993       -2.02010727096181        1.35884051133235
C           84.53420193273003       -0.98616428670619        0.64796942088699
N           85.86297226855983       -1.12772324212374        0.82843799222183
H           82.81659262706603        2.17919396594453       -1.66627699085229
H           84.70759533901696        3.63902637600626       -2.86399740875239
H           86.58575139308306        0.59377006166890       -0.62278143992032
H           88.48508431677122        5.11239049628079       -1.89955805918708
H           88.53362249788105        7.01465373852337       -3.49407778955730
H           86.37265434608149        4.67257361775900       -6.35856511638595
H           86.33336570972530        2.76456512110278       -4.77182261051994
H           90.05075611565077        3.36871024084148       -3.07880905094684
H           91.89442157300218        1.89665886393690       -1.79025022487257
H           91.80513278342671       -1.93627361938936        1.82228429248697
H           89.91479620945971       -3.42550578820062        2.98415260520141
H           88.04099991223836       -0.64936373365279        0.41372155242266
H           88.33248982420143       -5.14714525900599        1.73200729160307
H           88.29247284942265       -7.07369840711635        3.29624289264865
H           86.05127612790868       -4.74651678225773        6.11075936101690
H           86.09980832996311       -2.81351671704300        4.55357418332022
H           84.58099489463875       -3.65985456308946        2.58051271644968
H           82.73566820403029       -2.13163599775479        1.36103350645051
C          102.47128733898566        0.01059463020209        0.02647723149747
C          103.09620441817354        1.00178421015256       -0.75525887424283
C          102.44472882092521        2.03149780859771       -1.48209303104975
C          103.40452677417203        2.76606449306167       -2.12305094929978
C          104.66996031227552        2.19777984751808       -1.81275866149681
N          104.43387909942770        1.14237354553356       -0.97392287013401
C          105.92824890310575        2.63094724405032       -2.25013270853010
C          105.94319364834301        3.77788180612024       -3.18813628850499
C          106.59984718658170        4.96299748527333       -2.84192709420280
C          106.61732139481713        6.03740889163493       -3.71231815420781
C          105.97645720662793        5.92474579022610       -4.94288294010861
N          105.99384982770711        7.04903084441307       -5.86211824236025
O          105.42300083238743        6.91751283796887       -6.91433374532804
O          106.57762311856693        8.04359488848950       -5.51536722944294
C          105.31903483799402        4.75338910373241       -5.30788170471083
C          105.30279782732984        3.68668381843330       -4.42782497430493
C          107.15248588205455        2.07279325657456       -1.87706491304720
C          108.43561014228007        2.50513562856024       -2.40212259220714
C          109.37032978129355        1.73872138656315       -1.80376054153665
N          107.32707511559269        1.04816140524930       -0.99815739610999
C          108.65603652478485        0.83427218314359       -0.92408208487161
C          109.31174678193244       -0.11223650570485       -0.11121440626889
C          108.68910258044140       -1.05352961659024        0.73143760948475
C          109.34465967056894       -1.98992915080997        1.57195940533230
C          108.38474755614148       -2.72972557287996        2.20659224984682
C          107.11454660292515       -2.27093175597519        1.76294521903633
N          107.34911293148258       -1.25049926038228        0.88149324348966
C          105.85473520055398       -2.73988697838582        2.15677655683033
C          105.84115072226422       -3.88328949977866        3.09902225048924
C          106.42702571667054       -5.10164180874574        2.74159579374606
C          106.41494703469461       -6.17165369172491        3.61766079697457
C          105.81660914504968       -6.02079579196072        4.86535904528885
N          105.80523734015703       -7.13995438469148        5.79091839211527
O          105.27139417419872       -6.97561995378945        6.85777539433834
O          106.33140432228386       -8.16302878560976        5.43483498452016
C          105.22974400970621       -4.81594429432153        5.24167357253652
C          105.24254232820431       -3.75386330494348        4.35618214629865
C          104.62865571308635       -2.22097673731050        1.73583736272530
C          103.34028819424806       -2.77572551177888        2.11173120507338
C          102.40565615879088       -2.00713708483464        1.51599345426704
C          103.12458080076465       -0.99231128542652        0.77075697512649
N          104.45592758742079       -1.15234445607749        0.91067565591422
H          101.37832563296584        2.18727847178549       -1.50198408189909
H          103.25081008418806        3.63110404399412       -2.74710303773049
H          105.15756726055264        0.55533921159791       -0.57267088654948
H          107.08460225310803        5.04215294418611       -1.87592673123424
H          107.11851775660872        6.96147120417672       -3.45043658712455
H          104.83208837551769        4.68933008986612       -6.27352979735923
H          104.80650142590312        2.76449448722244       -4.70689951329450
H          108.57965249348938        3.27857004037846       -3.13882338369562
H          110.44034376913652        1.75747337670124       -1.93394496515042
H          110.41401633911975       -2.07625256799581        1.67637222581449
H          108.54197834777132       -3.51607416538784        2.92651193065820
H          106.62311054688747       -0.71681566023515        0.41520018152239
H          106.87742786331941       -5.21149668658492        1.76195285579816
H          106.86027357896189       -7.12140559578481        3.34682005005226
H          104.77394355118624       -4.72312179483251        6.22009082286019
H          104.80038172778059       -2.80665197658378        4.64199987405062
H          103.19225622045758       -3.64424500436478        2.73257429558964
H          101.33239818062644       -2.10132574555911        1.55432993975055
C          121.04822432762660       -0.08990643861988       -0.13064378915589
C          121.67137897184786        0.91855001831153       -0.89124564556748
C          121.01643637801413        1.92257208546872       -1.65024772401858
C          121.97686361445855        2.68802901520752       -2.25288198726989
C          123.24680849082753        2.16573834623021       -1.88521645569986
N          123.01153594811362        1.10469750180426       -1.05330059202544
C          124.50692055581528        2.64366070971458       -2.26718877124532
C          124.52109833111864        3.78682790816183       -3.20973411975452
C          125.11673255417790        4.99731454090726       -2.84170291384191
C          125.13007040125677        6.06885690190740       -3.71573868827237
C          124.54676760890432        5.92788502019390       -4.97175185800104
N          124.55873310711794        7.04960108121193       -5.89420788430948
O          124.03603893058373        6.89378150631073       -6.96791595196824
O          125.08997273386956        8.06652456700842       -5.52839729634318
C          123.95136394248846        4.73077913695049       -5.35898569984663
C          123.93868041470812        3.66701330359107       -4.47537284291724
C          125.73265079359037        2.13309603785245       -1.83520593582610
C          127.02158783809044        2.61075800289016       -2.30361590792012
C          127.95559584690666        1.88053025409645       -1.66052637879522
N          125.90451776369299        1.11859605914888       -0.94414183278804
C          127.23575739058803        0.95308427129138       -0.80977420130829
C          127.88818399218319        0.03106607130611        0.03332896474667
C          127.26253052852491       -0.92863455791850        0.85285061370539
C          127.91300711360033       -1.83977759795233        1.72447260091377
C          126.95283372154715       -2.61283583153200        2.31783930652040
C          125.68818528695691       -2.20087637173710        1.81634358889545
N          125.92502631638139       -1.17303981104230        0.94415554138018
C          124.42985444660049       -2.71631061678987        2.15277153707097
C          124.41437697369535       -3.85966381395129        3.09511128325826
C          125.05805256244558       -5.05653791721887        2.76579186447241
C          125.04126113336100       -6.12779313118911        3.64027552200959
C          124.37992204827573       -5.99955534879601        4.85834541444707
N          124.36182667685716       -7.12052000627277        5.78161035068582
O          123.77443252393626       -6.97566558568505        6.82284655109156
O          124.93581668713317       -8.12567858624825        5.44917345550472
C          123.73582132463808       -4.81580114362356        5.20698357945206
C          123.75393125600296       -3.75249078219390        4.32306541078939
C          123.20610943479832       -2.24381977635479        1.67461127328356
C          121.92297315976008       -2.84425447858605        1.99407912079957
C          120.98876477720236       -2.10932549853643        1.35670739900443
C          121.70344701764787       -1.07011682037681        0.64163666753623
N          123.03212423860235       -1.18296572617627        0.83964820573304
H          119.94710603187691        2.04069047780790       -1.71698966975403
H          121.82017340440731        3.54526224984312       -2.88688165213211
H          123.73718235472082        0.54531849161583       -0.61757502749801
H          125.55612196253931        5.09831033903929       -1.85623735202479
H          125.58358394141099        7.01245466865404       -3.43712927559467
H          123.50875138089978        4.64500132351007       -6.34409079284829
H          123.49051956318991        2.72548924843348       -4.77086332747154
H          127.17048526758677        3.38693952204119       -3.03645729006766
H          129.02900611289496        1.93825310199394       -1.74228470373824
H          128.97902215406862       -1.88732674868493        1.87688188642975
H          127.10571906523550       -3.39227536567882        3.04617050169953
H          125.20194337121289       -0.66717683069091        0.44356672213098
H          125.55736774618943       -5.14940135408115        1.80835389956692
H          125.53072917319167       -7.06146314720588        3.39052592063860
H          123.23162928324184       -4.74016574402178        6.16288295476741
H          123.26667113301963       -2.82140031951241        4.58775118205266
H          121.77853769361447       -3.71728634474499        2.60940381601659
H          119.91890460215539       -2.24180882431603        1.34765386497810
C          139.62396347019342        0.00658706958639        0.02207581456683
C          140.25870105079952        0.99007213196989       -0.76120852444792
C          139.61702125575013        2.01722326725063       -1.50037416809822
C          140.58455389260769        2.74159574304592       -2.14113541917494
C          141.84539807905500        2.17047963580479       -1.81698447740188
N          141.59848549078265        1.12251948920384       -0.97189115371023
C          143.10845796587401        2.59835198116277       -2.24536202199822
C          143.13195580681995        3.73488494723915       -3.19588900185892
C          143.78153838695854        4.92598656437920       -2.85721940480018
C          143.80511120480321        5.98978272937602       -3.74050017805361
C          143.17746377834422        5.86039120783749       -4.97621787352606
N          143.20087791632352        6.97354394061241       -5.90875325211254
O          142.64107441721916        6.82756342970480       -6.96502740620454
O          143.77820595768182        7.97400110872033       -5.56829178266697
C          142.52703750913750        4.68283633667615       -5.33375785721177
C          142.50463451730826        3.62693540007685       -4.44097472217276
C          144.32901400667564        2.04557446877260       -1.85195399568510
C          145.61848088211227        2.47969759087347       -2.35974258188281
C          146.54692715278307        1.72206001821426       -1.74071757964206
N          144.49386557606184        1.02712565654114       -0.96427460536378
C          145.82263648267030        0.81887817531938       -0.86806408852975
C          146.46852124114724       -0.12584278448827       -0.04555721035049
C          145.83474258479077       -1.07447715128230        0.78024085690566
C          146.47897963182839       -2.01861858355119        1.62080734134867
C          145.51073593407563       -2.76531611137198        2.23434390355851
C          144.24651849707445       -2.30188520209850        1.77858808478235
N          144.49269044904736       -1.27340977581691        0.90995923404821
C          142.98187643007566       -2.77206716452237        2.15576110290002
C          142.95806568520874       -3.92595319482912        3.08502003906796
C          143.54246217082951       -5.14173203949301        2.71647800032214
C          143.52078812063266       -6.22259876952996        3.57886263934529
C          142.91429254638800       -6.08533717840268        4.82421770560810
N          142.89264395541136       -7.21595942907439        5.73540439180696
O          142.35348157884874       -7.06275727542646        6.80128903159790
O          143.41724426635440       -8.23654439116972        5.36987452970731
C          142.32915514689105       -4.88316076452942        5.21166472068491
C          142.35159783550191       -3.81007851287651        4.33970031418757
C          141.76069201427407       -2.24505925964936        1.73120889168345
C          140.46741548593374       -2.79470572111171        2.09793893754091
C          139.53984337555062       -2.01606412868042        1.50428591469712
C          140.26795293655502       -1.00163361390276        0.76741273092922
N          141.59762078748284       -1.17041229216165        0.91177829716419
H          138.55149422861783        2.17767184664963       -1.52883826789726
H          140.43919814263350        3.60216614576934       -2.77333056336795
H          142.31636603291227        0.53521745734349       -0.56077420095030
H          144.25555939687209        5.01856152553808       -1.88710494560402
H          144.30082142339734        6.91847982911276       -3.48463556977863
H          142.05009886186866        4.60572167060229       -6.30343722915726
H          142.01332480886100        2.70015411726226       -4.71362081155530
H          145.77103666748920        3.24885999405415       -3.09919204645685
H          147.61880606663229        1.74476599328978       -1.85379286119349
H          147.54683317323565       -2.10578870761822        1.73898571589107
H          145.65828819714221       -3.55900807835763        2.94823549344031
H          143.77317712140123       -0.73518133791597        0.43887021322936
H          143.99946304264915       -5.24064823695763        1.73872385211951
H          143.96477717159439       -7.17039489485464        3.29913677533009
H          141.86705562044048       -4.80100781589310        6.18808103356303
H          141.91092789889106       -2.86495534904651        4.63458158609125
H          140.31138569197782       -3.66620113004381        2.71261836715695
H          138.46588338651461       -2.10387631060498        1.53797961210189
