292
 energy: -514.555904633348 gnorm: 0.000689261373 xtb: 6.5.1 (b24c23e)
Co          51.24432769869213        0.29732867878456       -0.12853285140373
C           48.10539765952440        1.39531787245915       -0.44638323108707
C           48.61341323497938        1.24787210069547        0.82966612323257
C           47.85059596051823        1.44903204373221        2.02446104430574
C           48.62866350732005        1.04150214375793        3.05610710536003
C           49.89363785374577        0.66307198926318        2.49866927790160
N           49.85957955744826        0.76553104862044        1.13249665163064
C           51.02992548765544        0.37585889586470        3.24510832938671
C           52.28331266203821        0.29900509102999        2.65679152925987
C           53.51468374058599        0.36076227992144        3.38490601617828
C           54.50715847239379        0.46956767575989        2.46746609248418
N           52.53173319739952        0.31407635993352        1.30539787975277
C           53.88650392315851        0.40298669168297        1.18163992895253
C           54.59748543509644        0.26759953810101       -0.01752717155653
C           53.96251956701578       -0.17906628519611       -1.18574869275778
C           54.65902033802687       -0.74448162419628       -2.29859107855005
C           53.71520318887296       -1.20313784766380       -3.15703939434027
C           52.44378427717859       -0.84334332625915       -2.60491112254729
C           51.23945072350310       -0.91596513542943       -3.28507950880864
C           51.17299967884026       -1.57380283826606       -4.61753622855076
C           51.81509617736886       -1.02587050377122       -5.73574551236867
O           52.49258993123973        0.13399377297276       -5.52627944786586
C           53.19275489993013        0.75708101313585       -6.58376957756666
C           51.72606261155272       -1.65448793384442       -6.97753036197590
C           50.99415547009806       -2.82614932884630       -7.09728464461095
C           50.34386719488919       -3.38306625207900       -6.00655433580372
C           50.42913674752044       -2.75276756674369       -4.76562207851388
O           49.83103090468232       -3.22023434846743       -3.63911482005130
C           49.04346621159204       -4.39275664495304       -3.67860616997912
C           50.09501063486305       -0.28666154827713       -2.80396006819567
C           48.92986039231362       -0.02650164970556       -3.59669550156463
C           48.10103379074008        0.73368792436946       -2.84051795337343
C           48.73281580009869        0.88384529235871       -1.56426646303787
N           49.96387555322625        0.27867746453962       -1.56617763769635
N           52.61599539409377       -0.25642152118262       -1.37027376413499
C           50.93665540999557        0.26982769919273        4.72614214936223
C           51.14078301443787       -0.97178998168770        5.34307451841124
O           51.39432530235109       -2.01239544832674        4.50778575319919
C           51.63078654389987       -3.30616360038484        5.02431440427780
C           51.06726648297001       -1.09045856112719        6.73063228177630
C           50.79987868037033        0.03492069128114        7.49536154689011
C           50.60507550990099        1.27570223358161        6.90744994589304
C           50.67434905498169        1.39394758707688        5.51967325582872
O           50.51398551704699        2.56836634398737        4.85357006361404
C           50.24953722840299        3.76322979336306        5.55990674593058
H           47.11344922748238        1.81744411607976       -0.56010376816381
H           46.83815876450073        1.82067178148859        2.04864614047919
H           48.39013548031208        1.02579509303720        4.10706202652009
H           53.59390302698764        0.35701608938887        4.46018432532984
H           55.56993402939403        0.54664028348365        2.63224468009762
H           55.73192213017243       -0.81657505230071       -2.37848186763417
H           53.85861257239335       -1.70801490176268       -4.09821700425490
H           52.51502827853366        1.06123599860073       -7.39070999468508
H           53.66163685630881        1.64503642766437       -6.15565930398181
H           53.97102427223903        0.10080959082576       -6.99219409415381
H           52.21639179869973       -1.23831206311870       -7.84740491634288
H           50.92643553364309       -3.31449843292633       -8.06326259037269
H           49.77740020865343       -4.29652539684366       -6.12903027241801
H           48.67075366074366       -4.54228285038082       -2.66357888455483
H           48.19264664285040       -4.28229720184467       -4.36195483863234
H           49.63652370376467       -5.26595805806930       -3.97664784697744
H           48.79081897268038       -0.36301450711097       -4.61172868024841
H           47.13248463476748        1.13460137854532       -3.09513756999036
H           51.81923133355285       -3.94758216932026        4.16141734014164
H           50.75967115006918       -3.68615456056650        5.57190757584877
H           52.50772391066319       -3.32171163099621        5.68290685624005
H           51.21731720676033       -2.04547504274610        7.21615893524556
H           50.74457130791119       -0.05640092156156        8.57461757523351
H           50.40455498756864        2.13773822366466        7.52953695734393
H           51.06827296259629        4.01469050375908        6.24501721473497
H           50.15933079136663        4.54770254326763        4.80612700164730
H           49.31155468195981        3.69751032249119        6.12470714144301
Co          82.56268215525911        0.46564558662729       -0.33124891087240
C           85.86288669001009        0.01434582259128        0.00050595707724
C           85.27033315778534       -0.37421724317260       -1.18415376379792
C           85.99740277432974       -0.87878650979717       -2.31004050171807
C           85.12048955334713       -0.94545161707639       -3.34020683018897
C           83.84257138790180       -0.55101223417334       -2.82483293343850
N           83.95216671655220       -0.18593832279027       -1.50877892756525
C           82.64950498828664       -0.63168604471646       -3.53273611509726
C           81.42113325012971       -0.49779625153616       -2.90470681028817
C           80.17713666935454       -0.89065919762106       -3.49516498657359
C           79.24540818078786       -0.84506871562037       -2.51130935037531
N           81.23221563474102       -0.15449273819150       -1.58649906627508
C           79.90791256497934       -0.36228481205414       -1.34074336413755
C           79.24194981163480       -0.02797378782842       -0.15396387459508
C           79.85396778331358        0.77991210037160        0.81383353874062
C           79.13490184689645        1.46478848949971        1.84173201040440
C           80.02252042109892        2.28316696484440        2.45857612576178
C           81.29589782656917        2.04682837180258        1.84791898095640
C           82.49299844614080        2.53760730147341        2.34502804898794
C           82.44512589478398        3.54924284940076        3.43548339028759
C           82.05400891188224        4.86268727326453        3.14338657183667
O           81.75889575149498        5.11619934822961        1.84188249731606
C           81.33916300559559        6.40403781430202        1.43971314889541
C           81.99478916432356        5.82232245608665        4.15356914906926
C           82.31760749022541        5.46144463855251        5.45295028046941
C           82.69694131637961        4.16518465743105        5.76723865108132
C           82.76037373950801        3.20634868528804        4.75651053207477
O           83.10668775876024        1.90889104618319        4.96852486959685
C           83.42324290544533        1.45506024221606        6.26871959148913
C           83.71719646712229        2.02679484504042        1.93162461358010
C           84.96495333057462        2.27724891438495        2.59085950099154
C           85.88546994708123        1.47184661329780        2.00875350137685
C           85.21569125279265        0.78403052557272        0.94615434404945
N           83.88893525507605        1.12592956095823        0.91361880129512
N           81.16957417731487        1.13540696042022        0.82607414664862
C           82.67156387308182       -0.99247188577015       -4.97628605075590
C           83.03186067923849       -2.27975309419483       -5.39525683783291
O           83.35119627744795       -3.15928779413571       -4.40902380578245
C           83.72136427068442       -4.48619037101292       -4.72347882302294
C           83.03605132304759       -2.60365372891812       -6.75170083223470
C           82.67863231201424       -1.64009993244509       -7.68269127826080
C           82.31143267527688       -0.36156472371709       -7.29102203977976
C           82.30309008927902       -0.03863002119664       -5.93437609006489
O           81.96076627596324        1.18376621300443       -5.45057984297570
C           81.55770009257307        2.21517542339974       -6.32823783015245
H           86.91933102655307       -0.18697801508120        0.13681453065152
H           87.05109983530951       -1.10979636925077       -2.30409548720786
H           85.30459279586864       -1.25939534933694       -4.35465808863609
H           80.05284559623875       -1.19531858560410       -4.52190796145587
H           78.19443705153276       -1.07887589216866       -2.56908124199979
H           78.07904548618679        1.35429481990517        2.03004457529146
H           79.85010319803023        2.96293308830804        3.27752457062600
H           82.11397492886333        7.15701321913929        1.62886518448938
H           81.15481029148899        6.34159007692057        0.36563496446940
H           80.41341199584760        6.70149767816917        1.94722464257078
H           81.70001725734474        6.84050702644106        3.93746711586034
H           82.27023871081072        6.20683127458485        6.23931029824034
H           82.93750909791586        3.91082601219741        6.79082465665485
H           83.65662374810135        0.39318165106587        6.17125627191782
H           84.29615529758158        1.97927866649195        6.67650952927827
H           82.57534653182640        1.57596812762799        6.95385162617153
H           85.09985567298004        2.96136808780917        3.41270999232913
H           86.93395428628125        1.36716251245276        2.23996820991843
H           83.92638056273157       -4.97799211482354       -3.77073100520112
H           84.62465765485592       -4.51532721861223       -5.34503293808925
H           82.91121615974981       -5.01859150341989       -5.23645402829477
H           83.31193178827709       -3.59494921471875       -7.08567148903038
H           82.68404051203581       -1.89231661563081       -8.73747457412319
H           82.03497270268790        0.36959655598205       -8.03888065840184
H           80.66243636204409        1.93284272640448       -6.89562203008232
H           81.32608155927004        3.07621853889938       -5.69855833999599
H           82.35908075231687        2.48511804825960       -7.02678389908260
C           55.98424585352178        0.46144801447554       -0.02860624682298
C           57.18119565057388        0.69046936760466       -0.06806842847056
C           66.44002822260416       -0.21263991365370        0.09158657637952
C           67.56486872384532       -0.65579650886932        0.26040954329623
C           76.75669683750311       -0.77694354439108        0.19532753701350
C           77.90435823600991       -0.40563472329140        0.01594872233510
Co          61.90384512528630        1.11162124594121       -0.27048989633398
C           58.55930375575770        0.92580672447270       -0.14158178068272
C           59.25770884237338        1.34304077643974        0.99851792358068
C           58.62434176680512        1.74417572172588        2.21428422152713
C           59.57361338172107        2.36243575445974        2.96193656972154
C           60.79604183806574        2.28340680473243        2.22448975985685
N           60.58909546689738        1.64647863962233        1.02916918921380
C           62.03105484869029        2.71302806809285        2.70245262046085
C           63.21781105245026        2.31082950075883        2.11110363687100
C           64.51665495906032        2.48090062242920        2.68829974597248
C           65.36321009663641        1.68669030748082        1.98659879295072
N           63.30087035614090        1.50389600428846        0.99650635840193
C           64.59579374944921        1.09531391409391        0.93660550156895
C           65.14265165880209        0.27949253254310       -0.06918456804956
C           64.46732591074698        0.08203583768745       -1.28232029938193
C           65.09297581277950       -0.41578975635754       -2.46631886778659
C           64.23049873657177       -0.18438076331027       -3.48831426941029
C           63.05694677266416        0.39802949931376       -2.91471985311900
C           61.89477244527605        0.68149878564285       -3.62204781425137
C           61.93685253960939        0.60181487382111       -5.10610483091055
C           61.28928194501727       -0.43106723022160       -5.79730784826409
O           60.63666382744511       -1.34434429303272       -5.03128915375020
C           59.93506594302116       -2.41467693747438       -5.63054825887820
C           61.35096290657003       -0.49343480759702       -7.18909876618137
C           62.06056136083411        0.47441604232037       -7.88373952183047
C           62.71634872116444        1.50067702088086       -7.22093639414949
C           62.65943073648747        1.56143184117627       -5.82893578698247
O           63.26331679425752        2.52759138919946       -5.09035325309829
C           64.04047010513771        3.52865103683567       -5.71617141112980
C           60.68919342101255        0.91709400966688       -2.97647231857839
C           59.41226826531062        0.94959799864576       -3.62113773321522
C           58.47744969612863        0.88384834632527       -2.63992279760575
C           59.18416425951575        0.88681420279725       -1.39885520906071
N           60.52760249890395        0.93987520853640       -1.60954010806189
N           63.21530170845147        0.54612695922564       -1.55982884882222
C           62.05785862194736        3.52057615255542        3.95030046994468
C           62.55909038393071        2.99427518140641        5.14861289571912
O           63.00660493614672        1.71206251297890        5.09705521577881
C           63.55010330139773        1.09404702544160        6.24590204118498
C           62.56204180821317        3.76650458146286        6.30984259481322
C           62.06188465892360        5.05913364442402        6.27016187794537
C           61.55199889986565        5.59787925070045        5.09869780546633
C           61.54446484033054        4.82531162778109        3.93789690742043
O           61.07172480920843        5.26357571250734        2.74292546996255
C           60.49386073430144        6.54812490505068        2.62685320499389
H           57.57913707622109        1.60304893791078        2.43788750825838
H           59.47015337940594        2.81190510491606        3.93644093226503
H           64.73626732261991        3.09910354216078        3.54311390799318
H           66.42061828295640        1.53644836920522        2.13422480675746
H           66.08126469957131       -0.84507550246390       -2.50501701297679
H           64.35759357809393       -0.40835151103080       -4.53528023831975
H           59.13746967654225       -2.05264555469738       -6.29070040070329
H           59.49125301443660       -2.98295315075526       -4.81103070706666
H           60.60777676720468       -3.06805156762361       -6.19922500103407
H           60.85599646584019       -1.28750861112466       -7.73193016468227
H           62.10627118174420        0.42563008004005       -8.96617585684228
H           63.26484701815001        2.24081560574490       -7.78800093739421
H           64.42768427040964        4.15827147665643       -4.91303946645049
H           63.43526709501867        4.14188963226420       -6.39483594811001
H           64.88103454129379        3.09514400093881       -6.27143342109942
H           59.25914944072169        0.98023500752137       -4.68737145208283
H           57.40363840402847        0.87071532653561       -2.73576507576343
H           62.80911366434546        1.01970223389628        7.05101091640275
H           63.84711224219724        0.08976544864328        5.93808255067745
H           64.43173224027433        1.63333921439390        6.61307982376585
H           62.94562792802220        3.36904204756402        7.23994977977641
H           62.06648080698682        5.65891729271282        7.17368968565879
H           61.16532584267810        6.60816213991064        5.09682004225199
H           61.22080910299771        7.33808922582776        2.85132718053080
H           59.62425802666478        6.65761104296299        3.28612845053005
H           60.17092972784413        6.64257691980811        1.58849038816807
Co          72.14563573217288       -1.69528990446070        0.66957404326082
C           68.87362363446690       -1.10783176906360        0.44153698557340
C           69.50436891939499       -0.90698686341796        1.68136729262075
C           68.81605509764526       -0.53302866854816        2.87580089576073
C           69.71030420228709       -0.64285716609432        3.89159763287543
C           70.96008776071237       -1.01354370752844        3.30233970748095
N           70.80629566510258       -1.19883105266007        1.94997350265332
C           72.17869689134335       -0.97531122627228        3.96624057981399
C           73.38265380707867       -0.96686388325893        3.27303773630081
C           74.64531012576296       -0.59190410597061        3.83050971736806
C           75.51954717710531       -0.50412580133880        2.79624062609279
N           73.50890256013949       -1.18126348310168        1.92174053450012
C           74.80906900872810       -0.90329763769492        1.62285091897045
C           75.42752503183966       -1.16883935229212        0.39122464292312
C           74.79396211858361       -1.96309187673235       -0.57741376524176
C           75.48805984799796       -2.63901059225145       -1.62707401556510
C           74.58977596230048       -3.46530523100250       -2.22012710732700
C           73.33033609365719       -3.23133478668206       -1.58326590553803
C           72.10833097090415       -3.70829475778115       -2.03965121005430
C           72.06619430231423       -4.69224530402508       -3.15388983384353
C           71.60873700398582       -5.99368912534322       -2.90693517688997
O           71.24998742373567       -6.26040349561970       -1.62471771011777
C           70.76300713560036       -7.53793596065732       -1.26693554191946
C           71.55387613725559       -6.92917995529819       -3.93963806618260
C           71.94533602269942       -6.55532807841992       -5.21626473876174
C           72.38850277573877       -5.26941896450923       -5.48647431941199
C           72.44830651528559       -4.33462230310255       -4.45342321818948
O           72.84949393980706       -3.04720437359009       -4.62309036167044
C           73.26253220966296       -2.58544916795892       -5.89325100496889
C           70.90683406910311       -3.18683037325991       -1.57669151515437
C           69.65219460976336       -3.33525963576959       -2.24772559077427
C           68.78061708263026       -2.49041311126410       -1.63964607256567
C           69.48619721502769       -1.88331126434366       -0.55642723928609
N           70.78013579037578       -2.30775441268750       -0.53006200783785
N           73.48390308239320       -2.33520412783500       -0.55177832661620
C           72.17603799488619       -0.78956055561758        5.44217611764831
C           71.81992251748056       -1.86138761122092        6.27114319642173
O           71.51027101794584       -3.02136207167091        5.63664769395907
C           71.14628841486724       -4.16877488025734        6.37698991693662
C           71.80881669938441       -1.70621393370116        7.65706885098543
C           72.14358505567112       -0.47742855676570        8.20556917893748
C           72.48772189402399        0.60034379521084        7.40360555867166
C           72.50385635515194        0.44452461197383        6.01790275165497
O           72.81269824282626        1.44261022060885        5.14876957916196
C           73.15351590208753        2.72885719500794        5.62512847697820
H           67.77315128301497       -0.26385114205062        2.92590727922773
H           69.55751688898417       -0.45219178597318        4.94180612727211
H           74.82399925133839       -0.38887841374026        4.87359283614851
H           76.56431938910121       -0.23933654601977        2.82171366706505
H           76.53774984579256       -2.52243926622284       -1.84372580844097
H           74.75092394685917       -4.14736490559637       -3.03859780309661
H           69.84783922871837       -7.78736320041264       -1.81752028719713
H           70.53742247668956       -7.48865580458650       -0.20009654297105
H           71.51446575737724       -8.31772959547847       -1.44058747842888
H           71.20918667566431       -7.93839680955101       -3.75831747794508
H           71.90116534983723       -7.28196926036314       -6.02010866194863
H           72.67995087883732       -5.00366907291621       -6.49377719873893
H           73.54133899154202       -1.53859625983716       -5.75936260828792
H           72.45091354218675       -2.65092549675580       -6.62799873615763
H           74.13102472654278       -3.14497726969151       -6.26139308853435
H           69.48064698760342       -3.97592735736565       -3.09776157324451
H           67.74162916372998       -2.31728304054796       -1.87008598173967
H           70.24086831832967       -3.99339841281115        6.97065812952768
H           70.94782732413476       -4.95260894577572        5.64371595072796
H           71.95743261228306       -4.49286847328848        7.04026067638732
H           71.54205031202441       -2.52886215014593        8.30696023719793
H           72.13386618679218       -0.35599862730924        9.28322343891816
H           72.73832029253535        1.54894782398134        7.85921721434286
H           74.05040812494941        2.69932573647959        6.25563969809849
H           72.32816583167778        3.17968954762556        6.18941750364935
H           73.35689626678626        3.33565933912711        4.74086989276074
