140
 energy: -224.311365274388 gnorm: 0.000262842808 xtb: 6.5.1 (b24c23e)
Cu          15.47335042027139        0.01633940082572       -0.01413059423521
C           12.07699389750277        0.16353189560443       -0.23555977013301
C           12.72975701453322        1.33283299416074        0.12540350607143
C           12.07516358394547        2.57163258797750        0.43599237734840
C           13.04575029806430        3.45978889557474        0.76523021529925
C           14.30386392162994        2.77346349741299        0.65035625509836
N           14.08004790946213        1.48308203134193        0.26436806883210
C           15.55274314161078        3.33474496931516        0.92475620271726
C           16.77108432807911        2.65820694019456        0.84482766830500
C           18.05672828019701        3.25237277811128        1.08005067181259
C           18.98649723835412        2.28636841742576        0.87068240813294
N           16.93922869254458        1.34550287883440        0.49162376256927
C           18.27755005748537        1.09803330782995        0.50061242787162
C           18.89451043868186       -0.12023893662992        0.16887344689335
C           18.22098486447101       -1.29247066751569       -0.21338406787288
C           18.87080009497862       -2.52143712609897       -0.55804233977407
C           17.89381883025683       -3.41452302784460       -0.85794172631179
C           16.63861108404134       -2.73691414563459       -0.69485140820667
C           15.38629096380211       -3.31018593788855       -0.92289376463302
C           15.35048230104095       -4.74704504512691       -1.29731437058388
C           14.86038953185678       -5.14128163220894       -2.54020663756801
C           14.82927992725565       -6.48742069780184       -2.89325761884161
C           14.28878217126309       -6.90069789299143       -4.23571944930209
C           15.28588176630249       -7.43987548399399       -1.98907427149006
C           15.77684111952573       -7.06149968431528       -0.74164815581361
C           16.28262238656432       -8.10461780663357        0.21803982900637
C           15.80978214291746       -5.71421333794959       -0.40305172838754
C           14.16643587929435       -2.63735481796671       -0.82513015401701
C           12.87415839069589       -3.23317060010968       -1.03058519601439
C           11.95069278292072       -2.25746983419122       -0.84496978170360
C           12.66850936202394       -1.05983365642550       -0.51356745220488
N           14.00923399697667       -1.31968822957692       -0.50328857951933
N           16.87171360715833       -1.44327914797905       -0.31016156252679
C           15.59104858609223        4.76447669960135        1.32563994739390
C           15.17748522612781        5.75439305983658        0.43541315676885
C           15.22089445823935        7.09545004294159        0.80057296411587
C           14.80138923481952        8.16312689134572       -0.17359759835908
C           15.67890038343251        7.44279450062476        2.06826099119260
C           16.09258219002081        6.46603918102554        2.96882570083132
C           16.56471334348775        6.85017732782694        4.34523182837033
C           16.04744195467029        5.12801971240639        2.59140542808908
H           10.99424597287219        0.20692445102303       -0.29458481145378
H           11.00785720782084        2.72598420533661        0.40855748605433
H           12.92763327135826        4.48709310674763        1.07061857661595
H           18.22315527060728        4.28099481521214        1.35626922858493
H           20.05903333702194        2.36368761256749        0.95086594036479
H           19.93873144252778       -2.67073267893707       -0.56924649676146
H           18.00850640957356       -4.43852562853192       -1.17488868682708
H           14.51767705392137       -4.38905809455527       -3.24237376038496
H           14.61665348440173       -7.90715186572565       -4.49568281274268
H           13.19665036851364       -6.89029582776782       -4.21652882879823
H           14.61853080005785       -6.21035569095251       -5.01292486512664
H           15.26144181307793       -8.49108349757816       -2.25752592102266
H           16.37354751588665       -7.69743806169150        1.22494233228468
H           15.60973593433384       -8.96262345447486        0.24412483123220
H           17.26633516128196       -8.45721122686394       -0.09980207117240
H           16.17990178755763       -5.40680702017609        0.56894633323687
H           12.70267615931990       -4.26910583011510       -1.27543156461023
H           10.87669633890722       -2.33010683119636       -0.91547301446661
H           14.83626466987798        5.47196444279600       -0.55458423182123
H           14.32778764331515        8.99692640541949        0.34541516719954
H           14.10508694719566        7.76478630668858       -0.91167943581480
H           15.67655531056961        8.54692788156018       -0.70296593885522
H           15.71465793806744        8.48825545646474        2.35711873208426
H           15.71680904541147        6.88133274246082        5.03338119527020
H           17.02960766425323        7.83627476511673        4.33523100648988
H           17.28365910150942        6.12427801807385        4.72566679189108
H           16.35653535450473        4.35680685761062        3.28852939482740
Cu          28.92311783563014        0.01391508056813       -0.02442320366876
C           32.31955392404686        0.19245223453239       -0.21914527706682
C           31.67087725994354       -0.48329439200358       -1.24198448895918
C           32.32966166439919       -1.12793941776869       -2.34201499269393
C           31.36199982912663       -1.69288098507063       -3.10603628433143
C           30.10158166303857       -1.39106355570120       -2.48368694434498
N           30.32107510820731       -0.65971747107643       -1.35182030400711
C           28.85448993129728       -1.81074044863706       -2.95113477659933
C           27.63386430466609       -1.54608636986375       -2.32792789567547
C           26.35014452752520       -1.93731615020316       -2.83804362125380
C           25.41730607427503       -1.47039558596746       -1.97010664439579
N           27.46156704784066       -0.84396136217348       -1.16452083633896
C           26.12251137765393       -0.78622517451510       -0.92782901551413
C           25.50200004222043       -0.13353332851307        0.15087609495261
C           26.17192183414677        0.55955404120736        1.17308975075870
C           25.51803392796316        1.22858847824204        2.25756567094652
C           26.49179796384460        1.76893892268853        3.03331301641241
C           27.74921260678804        1.42950480890915        2.42912893019895
C           28.99936437734870        1.81356779173973        2.91781946438617
C           29.03022700214902        2.57314222068893        4.19363978527341
C           29.52233661948047        3.87585963843197        4.22901406483845
C           29.54940749638325        4.58924306496197        5.42404302080581
C           30.09545174223377        5.99149775144398        5.45062067275484
C           29.08462894692433        3.98713539222664        6.58792976728347
C           28.59158594895036        2.68448972471391        6.56915428175552
C           28.07816864305943        2.05392886054335        7.83552966557112
C           28.56447897715401        1.98405572828624        5.36938085003534
C           30.22119289117482        1.53698474129095        2.30041206608273
C           31.51148235896117        1.90501112368439        2.81707282280268
C           32.43786001562251        1.45698559432882        1.93371419170171
C           31.72393314664062        0.80132078786822        0.87553835626695
N           30.38255841003812        0.86019791637690        1.12545503119741
N           27.52048937596728        0.69988163322112        1.29282235274159
C           28.82106764688083       -2.59449821653172       -4.21253063933969
C           29.23592131221902       -2.01509847787731       -5.41068687109160
C           29.19701999349562       -2.74045412345698       -6.59647080859762
C           29.61700669759171       -2.10212918972060       -7.89304487475357
C           28.74298469331719       -4.05609927042351       -6.57682191519010
C           28.32836291123822       -4.64915998039285       -5.38830453449204
C           27.86102524381027       -6.07965460206690       -5.37347603568219
C           28.36826053472988       -3.91265599307769       -4.20902145218076
H           33.40236795869014        0.23907913664694       -0.27443574642170
H           33.39753809760649       -1.14445104216497       -2.49397922316330
H           31.48336631986502       -2.27340649071049       -4.00650289766947
H           26.18720978154602       -2.48682464081227       -3.75104703117547
H           24.34499858091108       -1.56963169366096       -2.02545183202080
H           24.44976067011605        1.27605528728366        2.39687996795961
H           26.37322975625733        2.35738824759701        3.92875485122896
H           29.87010566318499        4.34064499863065        3.31284484384215
H           29.76858639452906        6.52108202621629        6.34544997609552
H           31.18748132505617        5.96545972446625        5.44742653087272
H           29.76933506586408        6.54885720127002        4.57177073919064
H           29.10499700993309        4.53757957917612        7.52296727692264
H           27.98430918726105        0.97384416860221        7.72361524222240
H           28.74817225077391        2.26500843171176        8.66991041088095
H           27.09469634909198        2.46033952125183        8.08176416231226
H           28.19392965420856        0.96510095719812        5.34306695044829
H           31.68001440863729        2.43008536063844        3.74356412707332
H           33.51147145724233        1.54860805290080        1.98546367927380
H           29.57462691054540       -0.98478181718155       -5.41524359542168
H           30.09522560166221       -2.83169836707945       -8.54721713325430
H           30.30939872354456       -1.27911667039083       -7.71553261609441
H           28.74135200913437       -1.70504326178213       -8.41171002409520
H           28.71111918019704       -4.62567060734281       -7.50001391517065
H           28.71108508491055       -6.74623684291088       -5.21057911443885
H           27.39790222109078       -6.34688004267992       -6.32359172028676
H           27.14194952685266       -6.24482040032216       -4.57086383388575
H           28.05794286428271       -4.36721642403653       -3.27448225139417
C           21.52264532998664       -0.17313100575398        0.21997366072640
C           20.30166903313633       -0.15920367633831        0.20382239780703
C           22.87403024048815       -0.17517297518642        0.21571147634360
C           24.09490263035704       -0.16050383701918        0.19743599465639
