324
 energy: -570.658856738439 gnorm: 0.000771782722 xtb: 6.5.1 (b24c23e)
C           54.24672770501473       -0.02420800071970       -0.09581869394999
C           54.85008759835816        0.98288768739609       -0.84036682331245
C           54.20095656243277        1.98982515936462       -1.60656981431375
C           55.16754478118645        2.77057526895213       -2.17898700675958
C           56.43248158356774        2.26262234019685       -1.77821087512725
N           56.19554566696031        1.18906002523553       -0.97449251478282
C           57.69934734868534        2.76002060531640       -2.13280590260912
C           57.71936952519791        3.88629439778789       -2.98517110474020
C           57.73320688544980        4.85154063737576       -3.72050238310854
C           57.75495417563927        5.97404029874074       -4.57934270839502
C           56.57085949359288        6.53282804248815       -5.07481321951380
C           56.64748962394976        7.63000314910336       -5.91405478245803
N           57.79909266639498        8.18833190831142       -6.27828772980464
C           58.92912004843290        7.66363804307797       -5.81068623094432
C           58.96198779360152        6.56776982731182       -4.96699411690727
C           58.92902309525824        2.22899989262099       -1.71101719557266
C           60.21089773759529        2.77991674868669       -2.10462399748360
C           61.15131928655487        2.01437658836146       -1.51205335709323
N           59.10242511321434        1.15689442600254       -0.89994394060751
C           60.43787712109957        1.00039497501072       -0.75975315838883
C           61.08864790845870        0.00961835472136       -0.00039683523525
C           60.45980359668548       -1.00200913393590        0.75169769152581
C           61.10266846169974       -2.00767712606573        1.51915953748582
C           60.13192120146879       -2.79030334102996        2.08426554288587
C           58.87152864054240       -2.28187129976289        1.67625541592250
N           59.11624112236902       -1.20328210520208        0.87486102119168
C           57.60587322190817       -2.78565204289814        2.02354875146054
C           57.58277285922544       -3.92080163618469        2.86232243271101
C           57.56256134743520       -4.89902386419533        3.58057210083210
C           57.53019970734010       -6.03951131746012        4.41455719822695
C           58.70913139881354       -6.63825857845415        4.87451846198682
C           58.62101902742260       -7.75425353254335        5.68736388102582
N           57.46300118436340       -8.29419028018629        6.05903474345301
C           56.33779112939167       -7.73083259648376        5.62616162067399
C           56.31628353400409       -6.61379474270305        4.81040623563509
C           56.37522124224711       -2.25093091412515        1.60156965166174
C           55.08687521029756       -2.80010760797560        1.98692330424122
C           54.15277135006458       -2.02752379731337        1.39587366911136
C           54.87376965842495       -1.01009460849447        0.65090975017235
N           56.21470522720540       -1.17898319003256        0.80058004021204
H           53.16154962831772       -0.03231115769271       -0.10757890353092
H           53.13174079712316        2.09313554873626       -1.70022610756082
H           55.02753983408950        3.62424435757149       -2.82261132450768
H           56.91588000537516        0.62318800620531       -0.53847213314422
H           55.61113751815466        6.10954408322830       -4.80371460197873
H           55.74473049232066        8.08305576057243       -6.31379559746751
H           59.85046137532995        8.14390027687393       -6.12751081980826
H           59.90514590883368        6.17237743454487       -4.60964158728928
H           60.34370667262137        3.63570512070571       -2.74705447900377
H           62.22459017968900        2.10467503621608       -1.56190030037043
H           62.17089938683981       -2.11184031008752        1.62010863608205
H           60.26886933854795       -3.64476623863489        2.72725564698469
H           58.39871409040632       -0.63686453287757        0.43454961317509
H           59.67373352885187       -6.23134555384062        4.59595523294535
H           59.51953503800201       -8.23896011570053        6.05838896461855
H           55.41093823059713       -8.19676480614126        5.94824776123586
H           55.37670142167402       -6.18716003228287        4.48064924059986
H           54.94916087663555       -3.65937265562539        2.62395982987313
H           53.07826893017550       -2.11161574493674        1.43945426072777
C          135.61855491498031       -0.14392317868603        0.01983581870614
C          135.00605579491662       -0.98206273509412        0.94452475575201
C          135.64571256363868       -1.85284983323444        1.86912177816103
C          134.67203759361666       -2.49218842883159        2.58662371628953
C          133.41214554015860       -2.02929377865406        2.12085529643868
N          133.65896907605912       -1.12339894829139        1.13442751837501
C          132.14079540331861       -2.41852892307465        2.57946392540316
C          132.10999280695495       -3.38123356317673        3.61274280185522
C          132.08773416299070       -4.21271612490878        4.49633368821856
C          132.05610826220664       -5.18302346943033        5.52377762329474
C          133.23486984526659       -5.74415135228726        6.02915499812909
C          133.14903409960564       -6.69307238691051        7.03222650176918
N          131.99328741698210       -7.10425932680421        7.54772194376566
C          130.86825551736695       -6.57511259453409        7.07317838602061
C          130.84462325526417       -5.62099006875282        6.07169450355545
C          130.91663680933300       -1.93209822767844        2.09314210668701
C          129.63002284099667       -2.36327079506041        2.60323720820397
C          128.69695994064998       -1.68937101168339        1.89842760007279
N          130.75320907142216       -1.01894547500778        1.10466499124434
C          129.41960335502102       -0.85090691730814        0.96141154091180
C          128.77744089554886        0.00072057867292        0.04222683006003
C          129.41514893909516        0.83833663769101       -0.89379102430937
C          128.78169085973363        1.70214180287191       -1.82442640149241
C          129.75964717225969        2.33630347581790       -2.54261631954248
C          131.01520904789842        1.87542750263144       -2.06855070362109
N          130.76043581460516        0.97385317028055       -1.07468360152383
C          132.28555611842404        2.26570633665690       -2.52719679123180
C          132.31948385371857        3.21488053450327       -3.57151969587063
C          132.34891660824653        4.02903555676586       -4.47125365834301
C          132.39094769207773        4.97516181141117       -5.52024949266836
C          131.21685538098308        5.49875983304033       -6.07462113585910
C          131.31371287823396        6.42143773784233       -7.10084698457829
N          132.47589512707188        6.84203040377485       -7.59391925973543
C          133.59654776958754        6.34932872000207       -7.07219829999816
C          133.60928192920832        5.42320702353619       -6.04464580508844
C          133.51106303784940        1.78596097178685       -2.03060702205042
C          134.80443294907889        2.21749568597397       -2.53158002981893
C          135.73115867907282        1.54467086556939       -1.81936461393188
C          135.00071159209432        0.70443931510958       -0.88640261360933
N          133.66152088062128        0.87934288885099       -1.04478693701905
H          136.70362760026865       -0.16373245688951        0.01323950414775
H          136.71374931483862       -1.96701002976766        1.96359045720323
H          134.80413385155751       -3.22044421574643        3.37071491540934
H          132.94388725931870       -0.62551389662908        0.61482298416727
H          134.19763134448277       -5.43820105851737        5.63777538625037
H          134.04755390766090       -7.14534965397451        7.44227479355885
H          129.94331019104524       -6.93307096892924        7.51620820316709
H          129.90519526272865       -5.21675667912360        5.71432979493295
H          129.48935861230558       -3.08384705756990        3.39298196806771
H          127.62315017871576       -1.73638222189498        1.98343975048492
H          127.71451674061599        1.81761930761320       -1.92438574178663
H          129.63063495752723        3.05988557507962       -3.33134942238317
H          131.47267784670206        0.47766831090932       -0.54926016405914
H          130.24915113041800        5.18369405377125       -5.70326596192503
H          130.41908061836241        6.84364665900904       -7.54949725910042
H          134.52697569634759        6.71393924830960       -7.49793892084514
H          134.54549435615712        5.04796608021679       -5.64934266127473
H          134.95026095102881        2.93804756781015       -3.32066304972938
H          136.80631693771755        1.58976416730858       -1.89376198451856
C           62.49416820688776        0.01516576442615        0.01601527396584
C           63.71851473913446        0.01389342325658        0.03024851000998
C           65.06115390579248        0.01282716018731        0.04259974481693
C           66.29167660424319        0.00820325411909        0.04918665097458
C           67.62946785312991       -0.00084010662097        0.05779711211203
C           68.86000538276153       -0.01158864037711        0.06155730191650
C           70.20239293197167       -0.02556925633889        0.06443003322178
C           71.42684404526119       -0.03996989290718        0.06591723548551
C           81.14310322177296       -0.06664010059666        0.03142240844930
C           82.36807013110707       -0.05599496115877        0.02415677095337
C           83.70955463760353       -0.04743524520996        0.01754623298964
C           84.94069071183178       -0.04061093048631        0.01485556491726
C           86.27748891033106       -0.03473767030179        0.00967084231456
C           87.50863578109156       -0.03241388836470        0.00549631142914
C           88.85013410669535       -0.03069041040826        0.00148213589960
C           90.07520675338921       -0.03225415136027        0.00319730362338
C           99.79141145192125       -0.04858735648610        0.00943179610659
C          101.01645597724104       -0.04198927745670        0.00968051384974
C          102.35791600734142       -0.03657815755235        0.01030394123959
C          103.58906123058749       -0.03431175199102        0.01099929947503
C          104.92582690879850       -0.03140147242095        0.01326898003826
C          106.15693730996904       -0.02964577304280        0.01424515286002
C          107.49841018748462       -0.02815487359306        0.01941644928047
C          108.72339852411027       -0.03215431916557        0.02641853166023
C          118.43939467994268       -0.01714693949761        0.07041780499629
C          119.66396889855505       -0.00012092414772        0.07023500948960
C          121.00622392346470        0.01398896889746        0.06951528695493
C          122.23688090356433        0.02502843967951        0.06553194157645
C          123.57456108826919        0.03299198658001        0.06119531868524
C          124.80519671875589        0.03697537174062        0.05532226647590
C          126.14773590979091        0.03476274532320        0.04929248537962
C          127.37218406464930        0.02248246215157        0.04570577856790
C           72.83146662668409       -0.05596003634813        0.06327515539528
C           73.45474702699386       -0.30202891742592       -1.17648046855635
C           72.80987870556643       -0.54346198045708       -2.41585783120967
C           73.78038328071132       -0.74622667952285       -3.36098176072676
C           75.04066499767963       -0.63128609946247       -2.72107124731549
N           74.79831624803472       -0.36229405373795       -1.40485564652139
C           76.30555712510802       -0.76665549613967       -3.32289158305932
C           76.31279001257379       -1.06108679154561       -4.70469529613511
C           76.31370021826724       -1.32161162424194       -5.88994311128161
C           76.32354305416918       -1.62691227931411       -7.27007129519549
C           77.52453206899978       -1.83842111017274       -7.95760785012465
C           77.47994159630750       -2.13642689859416       -9.30783616755539
N           76.34411778766750       -2.23288446880094       -9.99438278242119
C           75.19824374872364       -2.03287263502514       -9.34809859391286
C           75.13328293044614       -1.73069017691946       -7.99958872821333
C           77.54308354013261       -0.63474318508713       -2.67466586170091
C           78.81538890849251       -0.77073285651547       -3.35620516322520
C           79.76958864265633       -0.57359284695089       -2.42224655518357
N           77.73544409979742       -0.36435209690699       -1.36024159353616
C           79.07374352201406       -0.32166253848726       -1.17571751523981
C           79.73955332403885       -0.07497830760225        0.04012981949864
C           79.11607826329799        0.16249697128396        1.28180273887442
C           79.76092453015568        0.40175167728435        2.52159683752385
C           78.79033426722867        0.57362519733654        3.47274622167045
C           77.52995418595366        0.44507784796379        2.83551590883329
N           77.77265097366187        0.19835730424780        1.51474703786813
C           76.26509071945617        0.55110843648203        3.44255212743643
C           76.25559056450582        0.79679907757795        4.83375102498198
C           76.25079837087733        0.99963049121786        6.03023405669382
C           76.23378570738353        1.23023758246969        7.42470293832618
C           75.02786556892546        1.34009018192171        8.12703720131491
C           75.06548309435438        1.56141089045093        9.49218027146495
N           76.19896790615708        1.67678240568830       10.17952161391322
C           77.34954813927052        1.57443328902969        9.51900185447579
C           77.42156935318584        1.35369700341304        8.15517924590835
C           75.02734570095556        0.43404592460696        2.79083089191306
C           73.75501432581952        0.56616703441091        3.47330839736870
C           72.80076651287787        0.40097659886187        2.53326887286714
C           73.49641438923646        0.16642274507846        1.28335537217939
N           74.83532939908457        0.19269569605297        1.47134098955319
H           71.74141823909164       -0.55983714407249       -2.55789915074348
H           73.64188598315083       -0.95623564518047       -4.40927856631149
H           75.51395956943101       -0.22889999994419       -0.69814904157309
H           78.47202301891915       -1.76970657040521       -7.43687483392323
H           78.39625499035945       -2.30594537424771       -9.86607552266619
H           74.29059367949519       -2.11911788000225       -9.93859114768350
H           74.17805354696802       -1.57575143650001       -7.51245682565086
H           78.93305633849201       -0.98563901349801       -4.40626315741242
H           80.84141279935419       -0.59248119988003       -2.53771773398277
H           80.82944288829732        0.43534875873797        2.66021928462070
H           78.92870951195403        0.77292856400553        4.52315221100036
H           77.05720736164177        0.05993297236804        0.80882141508729
H           74.08193495307258        1.25196829777641        7.60649715113817
H           74.14520449502268        1.65003988603920       10.06233366720996
H           78.25512047288085        1.67348419521951       10.11058738920349
H           78.38032932267927        1.27638157094098        7.65676344884380
H           73.63735233069757        0.76031190702819        4.52739774487640
H           71.72895276313463        0.42877263724243        2.64698241080276
C           91.47874708425164       -0.03798441579019        0.00421088380526
C           92.10799245573176       -0.29626583136787       -1.23052053985123
C           91.46869220848701       -0.55318558632678       -2.46951269434807
C           92.44363949367637       -0.75619516783548       -3.41015671200222
C           93.70097949463357       -0.62649103710178       -2.76748221381855
N           93.45247754165206       -0.34897104905046       -1.45401609432331
C           94.96862209614694       -0.75627015210325       -3.36466256094023
C           94.98250007216421       -1.05659985527423       -4.74511232803154
C           94.99155143994201       -1.32214483449044       -5.92920860512659
C           95.01003592675259       -1.63295303623854       -7.30802675172123
C           96.21572003288948       -1.84415830820053       -7.98743553734602
C           96.18007274996734       -2.14868409926422       -9.33646009435417
N           95.04860365518361       -2.25176556786745      -10.02919993920086
C           93.89834675399275       -2.05207712084169       -9.39067893784499
C           93.82444340468800       -1.74367028847885       -8.04401119935962
C           96.20340475456861       -0.61570643027280       -2.71290818648293
C           97.47860653693346       -0.74845899040537       -3.38957579482605
C           98.42876189398014       -0.54890052841444       -2.45198481830332
N           96.38999309185510       -0.34320564887119       -1.39812006411098
C           97.72754113657722       -0.29798793963821       -1.20837422493007
C           98.38788660221634       -0.05199548740889        0.01048609519259
C           97.75872767483814        0.18838878851019        1.24887187384906
C           98.39802081067214        0.42725661460005        2.49149107397264
C           97.42306506779512        0.60586043404995        3.43705392556118
C           96.16568689038338        0.48184875434499        2.79329313247325
N           96.41422429464409        0.23050127731221        1.47457687117726
C           94.89798898284891        0.59814624045106        3.39308303940193
C           94.88363417991526        0.84879263627521        4.78338984004335
C           94.87431467773983        1.05284212134599        5.97962615986558
C           94.85512538723661        1.28662438474429        7.37354276667896
C           93.64783965734867        1.40716486714142        8.07184004338239
C           93.68277742266463        1.63084839318868        9.43662028567699
N           94.81501534101670        1.73861241399469       10.12732757802281
C           95.96680198681187        1.62564427158963        9.47075742193430
C           96.04150510034331        1.40168582301283        8.10754316710560
C           93.66327884694368        0.48453692280275        2.73581547526870
C           92.38815773710034        0.62969992246794        3.41011642191752
C           91.43799344210521        0.45658581893840        2.46728017403364
C           92.13906153495968        0.20427038641974        1.22386381791249
N           93.47664946769662        0.22979229429741        1.41754471535832
H           90.40080919446721       -0.57866313669339       -2.61457684775264
H           92.30994376225661       -0.97575244560370       -4.45712113468246
H           94.16481760447917       -0.20480846984336       -0.74608575080804
H           97.15979307577558       -1.77030265792601       -7.46130598504186
H           97.10011424025980       -2.31835096532429       -9.88840573361863
H           92.99453186098138       -2.14358627489014       -9.98615958339790
H           92.86588368735919       -1.58923297123506       -7.56333779057563
H           97.60090960377453       -0.96334591736637       -4.43910409973434
H           99.50106801048507       -0.56514531543669       -2.56330428011761
H           99.46590358343953        0.45644393810852        2.63583619783138
H           97.55674567965855        0.80700037567881        4.48770931121396
H           95.70192728137695        0.09281477237184        0.76532615519185
H           92.70305503630544        1.32532325721049        7.54819733527482
H           92.76145078859535        1.72796854130189       10.00367606353005
H           96.87125318771051        1.71862462643648       10.06504524083466
H           97.00129592408845        1.31553580310940        7.61256832102836
H           92.26593591693683        0.83726228707363        4.46113091475513
H           90.36574841520039        0.49005432405470        2.57526441342043
C          110.12693884270864       -0.03913426441948        0.03407264075798
C          110.76167882639631       -0.29277090952490       -1.19871417515536
C          110.12789557803619       -0.54716022872555       -2.44117683689762
C          111.10695985195737       -0.74661957800280       -3.37817579871553
C          112.36154902205246       -0.61691463426239       -2.72992540704264
N          112.10711521075217       -0.34326405329231       -1.41671534976403
C          113.63168407610921       -0.74147921139336       -3.32235967794938
C          113.65254160645156       -1.03873163886893       -4.70336628659434
C          113.67109384557017       -1.29856606628173       -5.88863322139390
C          113.69976079283008       -1.60630740429474       -7.26794888966640
C          114.91098142358058       -1.80556813238613       -7.94113205137402
C          114.88547174407658       -2.10710667936574       -9.29108101150433
N          113.75884949434490       -2.21803065935651       -9.99044473676304
C          112.60337396162176       -2.02939911209127       -9.35793922672584
C          112.51931767334797       -1.72489883203022       -8.01099092331003
C          114.86356710021401       -0.59675449133407       -2.66536041616385
C          116.14190674326993       -0.72002205025616       -3.33801074802389
C          117.08759267415827       -0.51683377145001       -2.39674149484617
N          115.04370899146600       -0.32698440858891       -1.34951438382479
C          116.38072553468929       -0.27434866524371       -1.15461692534798
C          117.03496087339910       -0.03199688796198        0.06770903224286
C          116.40055654877801        0.19501568383093        1.30547817539115
C          117.03430719035447        0.42847864151464        2.55206019716283
C          116.05523841904503        0.59741474756467        3.49502847213245
C          114.80064913363967        0.47303815218831        2.84574117469850
N          115.05490479729542        0.23049452504674        1.52662849080814
C          113.53032719323824        0.58285087965926        3.44133433207673
C          113.51020818928941        0.82722237731974        4.83271836872671
C          113.49507158415466        1.02733604094847        6.02955641538997
C          113.47185020586171        1.25409645408376        7.42459340613968
C          112.26292624249258        1.37027949580888        8.12078007692397
C          112.29465362470704        1.58836108420121        9.48656293399748
N          113.42523400302900        1.69482045572859       10.18017248209161
C          114.57859968636741        1.58631869119903        9.52555522589617
C          114.65649985633185        1.36812722536791        8.16160907935011
C          112.29863316516689        0.47062839151006        2.77834701214960
C          111.02028925557697        0.61046725289958        3.44774779364334
C          110.07459575642420        0.44176180743725        2.49966018472286
C          110.78159036951256        0.19732862353836        1.25794469084217
N          112.11815894448534        0.22305795967938        1.45779618558355
H          109.06065419719997       -0.57351284890232       -2.59074454939413
H          110.97797372430624       -0.96352729173414       -4.42628526519216
H          112.81631621350068       -0.19996130450510       -0.70548306426399
H          115.85152145362798       -1.72495793950384       -7.40964252293571
H          115.81003436709568       -2.26769847524374       -9.83821196762149
H          111.70368026734212       -2.12729999350674       -9.95869490701542
H          111.55681067878288       -1.57957796206581       -7.53536098803767
H          116.26914232629353       -0.93147188473524       -4.38765238231858
H          118.16034195563361       -0.52653934973176       -2.50443779612361
H          118.10154411523777        0.46064543696784        2.70051947540279
H          116.18422724508882        0.79252866668083        4.54740341521570
H          114.34561166711654        0.09523343126499        0.81391028283578
H          111.31932497619614        1.28950674224303        7.59485116956689
H          111.37196508739405        1.68175249275901       10.05206911144859
H          115.48167410500389        1.67807127763412       10.12212835175082
H          115.61747619144528        1.28566369250986        7.66825509749252
H          110.89308424114516        0.81179563643702        4.49939434170441
H          109.00182961579299        0.47318624311819        2.60304318916059
