246
 energy: -428.416258233855 gnorm: 0.000648785967 xtb: 6.5.1 (b24c23e)
C           42.57742024885312        0.10939320034448        0.05365066060452
C           43.19034423925757        1.24837836664314       -0.45217259867675
C           42.54341866880658        2.40212019312617       -0.97677818219915
C           43.50976080705737        3.29074773251176       -1.35614430221510
C           44.77866020311145        2.71398413936198       -1.06305638642827
N           44.53476206543554        1.47918324478144       -0.53178457213927
C           46.04387852370890        3.27429089980705       -1.27349160285003
C           46.07844036814923        4.64572347022031       -1.83742101071601
C           46.70675100557980        4.89168131241769       -3.05888339178415
C           46.72976969725904        6.16761496374800       -3.59992946622511
C           46.12579436649434        7.21972948811080       -2.91536697721835
O           46.12474850551732        8.48489907649861       -3.40870911949070
C           45.50001483911303        6.98928356901530       -1.69161159888553
C           45.47594040525713        5.71076631002138       -1.16311199942074
C           47.25722322074791        2.63949807304618       -0.99420622709950
C           48.55495116926743        3.27337212818177       -1.14351712736127
C           49.47438383364371        2.35169926783926       -0.78897460263556
N           47.40981490217384        1.36649805518712       -0.53704633005846
C           48.73755987531931        1.15941520336799       -0.41750038120983
C           49.37147162139738       -0.03505672936713       -0.02106331843750
C           48.73040869775856       -1.21933596312615        0.38788119292730
C           49.36640674416957       -2.43405119797683        0.75760956248334
C           48.39522785908107       -3.32500656545676        1.12250355465607
C           47.13493564848611       -2.67759517581083        0.99571534693887
N           47.38894404859484       -1.41221879729589        0.53584536925936
C           45.87253784961473       -3.21478816715751        1.27034022239878
C           45.83275864718973       -4.59451556139042        1.81203687471298
C           46.46168881816425       -4.90274488397175        3.02104804119611
C           46.41384433466593       -6.18492943313453        3.53870007014695
C           45.73734054147795       -7.18605929439723        2.84413035646473
O           45.71062910022479       -8.43349808333190        3.38000883449995
C           45.11136954491144       -6.89567731081742        1.63407357204500
C           45.15823568816734       -5.60632217225113        1.12736992029447
C           44.65933681138094       -2.54486129875641        1.07698740501553
C           43.35765932494652       -3.09297399561610        1.42579266069529
C           42.44541226074010       -2.16209241486368        1.08034828961175
C           43.18904109119448       -1.04156149819625        0.53291631256594
N           44.51916680416558       -1.30259939004620        0.55693060465025
H           41.49236986700053        0.12934096861657        0.07138974020551
H           41.47450876549012        2.52117505307516       -1.05539659295397
H           43.36175013488740        4.25826878440932       -1.80772296544721
H           45.25664128200140        0.82782981705732       -0.24234894862870
H           47.16529207945478        4.07108973507334       -3.59932464404631
H           47.21267833991423        6.35081476119523       -4.55381310321058
H           46.58917537245890        8.53322646533638       -4.25508189513816
H           45.03957715836169        7.81762254775403       -1.16743372395790
H           45.00115493413598        5.53551493687991       -0.20409916231733
H           48.71792747865599        4.29094235508442       -1.45995102985274
H           50.54822774176072        2.44681425756411       -0.76561771206788
H           50.43193506420723       -2.59725835304314        0.73879259225708
H           48.53556092458512       -4.34461605176264        1.44250402759348
H           46.67212295594099       -0.72269269469451        0.33509522500545
H           46.97437402152269       -4.12094386502710        3.57036945353214
H           46.89221251928009       -6.42375892088561        4.48051050153520
H           45.21129620034581       -9.04562679623427        2.82294536096803
H           44.59048360921124       -7.67915299221594        1.09411559604270
H           44.68053719101326       -5.38464572728770        0.17953154351597
H           43.18961707780382       -4.05370027207505        1.88538463502363
H           41.37201725369707       -2.19738729756783        1.18280375665824
C           89.73828144138508        0.01017559529111        0.11615571527763
C           89.12642510468535       -1.05438216122548        0.76504019842960
C           89.77507469204490       -2.14330610319220        1.41201691200034
C           88.81008617113257       -2.96414965222844        1.92408247938628
C           87.54024379996078       -2.39698379743707        1.61654688418909
N           87.78232316577316       -1.25372683873818        0.90887016776992
C           86.27615135604528       -2.89850299856548        1.94686559181437
C           86.24541310101785       -4.14446990639134        2.75142602205908
C           85.63527170517227       -5.29637650844391        2.25386544285679
C           85.61442763408594       -6.46530288745753        2.99874488415425
C           86.20231837323482       -6.49128040027427        4.26128336721976
O           86.20405113150564       -7.61426317237577        5.02485902071727
C           86.81095351692186       -5.34643587317197        4.77230994698962
C           86.83298376914695       -4.18653932519149        4.01835442940393
C           85.06159207719809       -2.31217003458101        1.58070371554822
C           83.76332454619246       -2.81493026234037        1.99322846588628
C           82.84355377223599       -1.98978797531151        1.45172344478075
N           84.90873281214211       -1.19404308081551        0.81997366361476
C           83.58057338324546       -0.97918490284406        0.71788061371000
C           82.94618752017276        0.06396817070743        0.01530395063987
C           83.58334887708382        1.10452114559950       -0.68471256030936
C           82.94277732562884        2.13042485582292       -1.42953435037614
C           83.91237084158107        2.93680817534228       -1.95794953994530
C           85.17671268222496        2.43395414875000       -1.54252554455329
N           84.92579351504895        1.32168266981916       -0.78289136915625
C           86.43983054732671        2.94807631447991       -1.85411714686305
C           86.48041771737600        4.18296220231904       -2.67446452841848
C           85.89111713861635        5.36395764839687       -2.21651379087794
C           85.93990835356875        6.52075436235845       -2.97413061338467
C           86.57702447301082        6.50916358637813       -4.21357110285838
O           86.60533200775365        7.66135795313060       -4.93177571635156
C           87.16355194032626        5.33750460369051       -4.68638003844320
C           87.11646685480224        4.18573579101867       -3.91660114663083
C           87.65458150786056        2.38590139252904       -1.44627151281879
C           88.95817999928099        2.97071553532976       -1.72023578572470
C           89.87105263177710        2.14644617434005       -1.16778608331900
C           89.12625511055288        1.06437152742672       -0.54902895340212
N           87.79488627604134        1.24634113702471       -0.72872608278095
H           90.82350444870046        0.00930856159836        0.13505748586293
H           90.84420976296633       -2.27382554121074        1.46524787358299
H           88.95914628349362       -3.88734948764238        2.46021547019345
H           87.05927108932710       -0.64474179830550        0.54073561757542
H           85.18912603792030       -5.28157482795028        1.26572254609643
H           85.14525743636761       -7.35987171984347        2.60340630596543
H           85.75159612250354       -8.34343619637726        4.57996605771763
H           87.25940400606761       -5.37918918379820        5.75756246186901
H           87.29431734772676       -3.29235330370745        4.42265151129013
H           83.59984565165422       -3.67271864054502        2.62534150982287
H           81.76930594641347       -2.03309742738104        1.53429270724848
H           81.87530348459244        2.22558974434132       -1.54699619435427
H           83.76838952959886        3.79863806285344       -2.58900267043426
H           85.64564658671057        0.74163420492900       -0.36461481424373
H           85.40911368766837        5.37827468035204       -1.24530452593278
H           85.49239938628506        7.43999378922274       -2.61690344141167
H           87.07569794929123        7.54367385417266       -5.76799455807417
H           87.65398619507248        5.33159400848177       -5.65393758979258
H           87.56368043467585        3.27154598417705       -4.29079606635314
H           89.12677354932580        3.89454328223856       -2.24995055721936
H           90.94581289823913        2.23953440795321       -1.15583007427893
C           52.00140767322206       -0.07819710374231       -0.03325068933540
C           50.77971000117716       -0.05914241338288       -0.02912691767937
C           53.35268411870756       -0.09065443190197       -0.03019299429446
C           54.57478081354749       -0.09382126489165       -0.02593963452064
C           65.48702782989820       -0.03749489061672        0.03012404097100
C           64.26417256587142       -0.05260149915115        0.01203355748319
C           66.83611039302075       -0.02801186449142        0.04571609219642
C           68.05894992731042       -0.00982896545029        0.06176485847269
C           78.96292211990935        0.08816580790130        0.00032691780395
C           77.74138018785460        0.08140876432233        0.00243647107802
C           80.31514472166809        0.08658592414473        0.00130833725274
C           81.53654472737460        0.07718737519685        0.00575243424669
C           55.98230860280598       -0.09623718982962       -0.01128520435184
C           56.61536204211786       -1.21478726859873       -0.58509816244976
C           55.97425707601291       -2.31513067708808       -1.21032122111895
C           56.94564264997427       -3.16112855627796       -1.67141778239039
C           58.20960708068943       -2.60585345499132       -1.33184253688202
N           57.95870947821842       -1.42868798905200       -0.67884643673686
C           59.47234651698039       -3.13258616489293       -1.63224627682550
C           59.48673483924556       -4.43762047519757       -2.33970922968060
C           60.04773908551833       -4.54647200421485       -3.61245800289604
C           60.05011663829076       -5.75908771651174       -4.28418716158012
C           59.49376034215069       -6.88463951301043       -3.68095112175125
O           59.47472849337862       -8.09163342608773       -4.30279078960764
C           58.93595186038692       -6.79106581921027       -2.40720256734997
C           58.93107696288453       -5.57459940357962       -1.74793921467069
C           60.69666446940581       -2.53545343040579       -1.32683438738074
C           61.98406067071364       -3.14913712798253       -1.59963270328752
C           62.92163784804186       -2.28925193997172       -1.14975170600397
N           60.87421145050227       -1.33297063368361       -0.71232229293559
C           62.20605639580660       -1.15709586145129       -0.59623434550881
C           62.85925589358403       -0.05466678673102       -0.00792904261733
C           62.22432602607523        1.05510542689745        0.58378661091588
C           62.86524439209520        2.14738150557153        1.22289934312974
C           61.89397377172636        2.99282590932759        1.68550171747657
C           60.63046786871742        2.44565986330971        1.33209799165372
N           60.88163724730427        1.27243608512241        0.67117944784342
C           59.36775932763590        2.97677634851503        1.62273850293440
C           59.34699030911151        4.27587793300115        2.33998728141418
C           59.91754170033480        5.41640662716062        1.76978024813273
C           59.89678505172493        6.62836436570261        2.43710379221548
C           59.30732887895698        6.71389609463510        3.69708880528662
O           59.30837153315311        7.91730801121857        4.32599784406478
C           58.73789959027222        5.58410497046156        4.27993918391768
C           58.75670122906632        4.37621475720526        3.60038089850702
C           58.14369291239500        2.38744117355551        1.29925792507927
C           56.85673326150504        3.00992631721526        1.55458834261022
C           55.91948883832348        2.15340981203078        1.09832896976225
C           56.63473907415288        1.01403485493350        0.55942624701858
N           57.96716484798754        1.18503015427802        0.68647256628529
H           54.90628016874125       -2.43121083771374       -1.30091336067887
H           56.80057515092308       -4.08240537342713       -2.21152564012788
H           58.67416971087068       -0.80012643761385       -0.32914092824534
H           60.46953060050303       -3.66818731763824       -4.08827345497634
H           60.48008468127198       -5.83575008430455       -5.27711688064858
H           59.88851781111131       -8.04514675852720       -5.17512922651815
H           58.51189751977181       -7.67544005482253       -1.94791639527542
H           58.50741030649586       -5.50510559192843       -0.75221684039599
H           62.12917871879475       -4.11460998664037       -2.05668026849915
H           63.99493035381847       -2.39173621034290       -1.16993632126381
H           63.93298995138382        2.25994642280200        1.32010070313590
H           62.03889178256933        3.90907307124884        2.23411929957080
H           60.16620879713781        0.64994768099707        0.31070715114653
H           60.36384401605885        5.35406709147220        0.78353568373683
H           60.33121913363411        7.51586738959498        1.99386232897252
H           58.86912066571478        7.86587220748399        5.18554164455494
H           58.28371895091772        5.65416120780290        5.26250408059384
H           58.32368991979001        3.49474371612178        4.05995230853433
H           56.71152969523976        3.97836646399862        2.00515496003480
H           54.84671043567190        2.26187717598859        1.10686772866041
C           69.46411228545483       -0.00039063448777        0.06663470873366
C           70.09728135412348       -1.09870125566147       -0.54790432743503
C           69.45358717500673       -2.18043614944281       -1.20228955510412
C           70.42274068016536       -3.01363434553925       -1.69071440301232
C           71.68792056335812       -2.47057556263750       -1.33695684434612
N           71.43962103271946       -1.31090514982048       -0.65122826219254
C           72.95000542642165       -2.99409762116015       -1.64266455282810
C           72.97407911272281       -4.27420695579216       -2.39264546216995
C           73.57136096652614       -4.33705095627766       -3.65243564281704
C           73.59462963168195       -5.52387200881966       -4.36774220087309
C           73.02281469784219       -6.67073835193344       -3.82172794978255
O           73.02575025779497       -7.85476841292373       -4.48658468773571
C           72.42730065634687       -6.62311913670358       -2.56259806495086
C           72.40198046959485       -5.43159002294945       -1.85935424379155
C           74.17367516652354       -2.40821706469656       -1.31009773364848
C           75.46098498154038       -3.02966808870319       -1.56663549647972
C           76.39757369828729       -2.17504245210016       -1.10554219167806
N           74.34889555097139       -1.20916834882181       -0.69166560599506
C           75.68157118040749       -1.03676146002402       -0.56515147835162
C           76.33260394666431        0.07760098663579       -0.00287807940637
C           75.70073788809010        1.19821574993096        0.56692532399880
C           76.34429627371979        2.30860639635803        1.17199405677535
C           75.37480691314560        3.15556897320893        1.63466809026179
C           74.10922276355316        2.59065897720573        1.31698815767413
N           74.35756706348319        1.40731517798298        0.67451357797646
C           72.84760818807564        3.11262556589518        1.63082730702847
C           72.83625662166885        4.42909416596194        2.31610851123098
C           73.38832926744948        5.55454668644502        1.69888291161243
C           73.38844405717025        6.78359184097842        2.33409874333350
C           72.83817856114455        6.90256424435164        3.60904589907181
O           72.86115327491991        8.12160819874771        4.20648978627501
C           72.28553302759181        5.78911613852849        4.23764733121733
C           72.28403160593849        4.56322050247241        3.59033248882958
C           71.62382272384569        2.50039054989988        1.35342409648115
C           70.33475199655994        3.10052345817514        1.64752365446587
C           69.39891351777278        2.22830171255622        1.21833411463115
C           70.11684572433576        1.10314724186092        0.65355699147702
N           71.44850304895274        1.29335511259426        0.74698722224667
H           68.38532664642851       -2.29375705515488       -1.29273366294365
H           70.27522590274064       -3.91888567988637       -2.25663098147732
H           72.15724082543855       -0.69269158952191       -0.28778463179259
H           74.00646492812727       -3.44200060303274       -4.08290269153735
H           74.05396993644037       -5.56425921455628       -5.34959989668832
H           73.46770638860494       -7.77652471986592       -5.34272592559638
H           71.99177569466831       -7.52391399646726       -2.14816048265342
H           71.95136922753790       -5.39957527885449       -0.87362695619706
H           75.60630488387491       -3.99726251095812       -2.01905613205327
H           77.47035103945208       -2.28375083750358       -1.11190337187846
H           77.41271801643033        2.43069390325885        1.24800465390697
H           75.52260403203705        4.08332807336327        2.16275622059998
H           73.64028235591825        0.77279711495519        0.33957467641150
H           73.80508577009631        5.46568734399913        0.70177044908428
H           73.81052982720826        7.65835031439951        1.85501990225307
H           72.45241937537018        8.09308095376641        5.08197747600112
H           71.86173721135354        5.88546948867196        5.23151013900434
H           71.86678484933496        3.69454402302490        4.08728569468233
H           70.18639437189206        4.06586281771755        2.10373645663121
H           68.32510456970327        2.31872673267244        1.25840587951233
