264
 energy: -494.554104352110 gnorm: 0.000440959772 xtb: 6.5.1 (b24c23e)
Zn          43.61923457764104        0.19892253591771       -0.51209603036037
C           40.23090722155194        0.14141472779889       -0.13929659694714
C           40.84322702856025        1.38478539556587       -0.03980980897368
C           40.15682246073573        2.62760187336593        0.17822557214757
C           41.09992223589749        3.60150236425979        0.21190424935642
C           42.37679503542859        2.96320431731415        0.02693153518645
N           42.18462266067269        1.62234093540138       -0.13322552041764
C           43.61596646388671        3.61419553243549       -0.00432783859117
C           43.61405298708782        5.08355600670731        0.20907974152239
C           43.15178370933376        5.62527649702199        1.40509031802646
C           43.14877846508393        7.00560479694057        1.60279818361090
C           42.64486308022270        7.52097648064190        2.90023637441122
O           42.68794093852720        8.85783626085037        2.99963941978987
O           42.23006457624505        6.82710319681922        3.79321826530033
C           43.60870702331045        7.85694549918730        0.59813481121350
C           44.06893887909404        7.32038125913731       -0.59406412227825
C           44.07389707822968        5.94632882308890       -0.78882487660445
C           44.85613168369841        3.00188591865638       -0.21548120158019
C           46.12830162531564        3.66938116890530       -0.18198039050959
C           47.07926512848136        2.72994357226509       -0.41824042823523
N           45.05971014549169        1.66994925850357       -0.45873851617998
C           46.39960020475341        1.47977978878089       -0.59144819620710
C           47.03733792114382        0.25275579707758       -0.86486369864541
C           46.39495042675311       -0.99247689394246       -1.01948594413375
C           47.06331749220872       -2.21942869377999       -1.33982057737983
C           46.11272856801325       -3.18704169327546       -1.39321262214014
C           44.85411498497888       -2.56115328530004       -1.09437189642964
N           45.06192475720344       -1.22408688381566       -0.88420981915229
C           43.61730611554577       -3.21326917888613       -1.04573631606210
C           43.61429131399392       -4.68062756711020       -1.27367305571289
C           44.30339574148599       -5.53470455982724       -0.40970904575355
C           44.29829942842889       -6.90704956545417       -0.61799649807766
C           43.60769904378712       -7.44420305628113       -1.69137659813278
C           42.91586893875581       -6.60140259258676       -2.56281642259696
C           42.18796712408318       -7.21477711699151       -3.70131525544812
O           41.54937112277938       -6.32351142701442       -4.47427503768848
O           42.15600400319917       -8.39696895678873       -3.93039648913865
C           42.91955911468899       -5.22390664954074       -2.35232633001192
C           42.38063962644940       -2.60449615675126       -0.79910849656914
C           41.11696872529623       -3.28662484887524       -0.70114545961304
C           40.17277198232845       -2.34625141148856       -0.44864457444732
C           40.84792241408875       -1.08044915206497       -0.37939540226300
N           42.18349133867815       -1.27115050554662       -0.58981142760373
H           39.15238556551549        0.12247106256981       -0.01683106527021
H           39.08818617502487        2.73048244771844        0.28334676832172
H           40.94820461520936        4.66108667885233        0.34148102028767
H           42.80312287664353        4.97834818884381        2.20267257649321
H           42.34367761404845        9.11286775340928        3.87098429567311
H           43.60379808506814        8.92912306847045        0.75248203288579
H           44.42517819178490        7.97615781981074       -1.38051709772974
H           44.42351660981218        5.53428338745716       -1.72893277726791
H           46.27498249833216        4.71966009113153        0.01249086487885
H           48.14832037052687        2.86324441230696       -0.46604977021597
H           48.12369298719901       -2.31864096048421       -1.50917912035507
H           46.24882552361641       -4.23082676323259       -1.62638482675580
H           44.83352489044550       -5.11764217886899        0.43926935860968
H           44.83462472474798       -7.55734866923413        0.06367394259013
H           43.59318277183303       -8.51364711829127       -1.86864802164269
H           41.10148437648920       -6.80275836172917       -5.19013198987213
H           42.39284697504588       -4.57081048609294       -3.03808680486669
H           40.97631201738466       -4.35093456141032       -0.80167122552727
H           39.11193212178587       -2.48652096551292       -0.31219518515780
Zn          91.70968394382899        0.22325368720408       -0.47362866958270
C           95.11813701816844        0.15606792233683       -0.51533558612310
C           94.47212928120857       -1.05005071981663       -0.75771937334379
C           95.12896359034424       -2.29528828573809       -1.04272694122186
C           94.15803475568882       -3.22702913838037       -1.21073023189031
C           92.89475411162286       -2.56331893440964       -1.02180478513023
N           93.12045738982927       -1.24408847223416       -0.75913490770816
C           91.63543306859698       -3.16768280204333       -1.11905106950792
C           91.60632833312252       -4.62822508954462       -1.38463343110953
C           92.17336086944353       -5.52128680074512       -0.47973406213821
C           92.14658031378140       -6.89322608199672       -0.72725948933160
C           92.76655984171065       -7.79310903738113        0.27710246423932
O           92.68497008100013       -9.09277983353040       -0.04418059505871
O           93.29925909223564       -7.41781849599940        1.29022637023195
C           91.55101478973197       -7.38234639140047       -1.88992593251846
C           90.98741023912908       -6.49541319303300       -2.79366971702257
C           91.01254800067035       -5.13020552837380       -2.54519457072221
C           90.40377090327001       -2.51718969604274       -0.98690931758869
C           89.11652962029400       -3.15316099930268       -1.04795888752126
C           88.18251074375885       -2.18327124785573       -0.87536834470291
N           90.22716104013453       -1.17837859456278       -0.76024926304462
C           88.88848275698037       -0.94893663706515       -0.69459501319270
C           88.27350780728408        0.30152731710000       -0.48179139310483
C           88.94394129253013        1.51973954207145       -0.25007724784027
C           88.29378561882208        2.78152416019987       -0.04994974994797
C           89.26986380685145        3.70447565335044        0.14507915720476
C           90.52734943804415        3.01280368547148        0.07183529352819
N           90.29137476139010        1.68724820877603       -0.17738272712244
C           91.78624820599440        3.60885597931696        0.20278038691063
C           91.81823003787385        5.06236804380790        0.50548392090947
C           91.26640317599094        5.55019932952150        1.69218843081670
C           91.29668193255357        6.90739074459219        1.98146869143720
C           91.87495990075737        7.79479596871051        1.08949873468843
C           92.42848347204112        7.32015259760588       -0.10069649993217
C           93.03739372907395        8.30264101462991       -1.03146332698798
O           93.54564185541390        7.74790765151278       -2.14209921273577
O           93.08597055046415        9.48940630683711       -0.83103496617572
C           92.40030215971770        5.95719393828300       -0.38966438317030
C           93.01807889042087        2.95654034398546        0.07104858842905
C           94.31088722893645        3.56702028750259        0.23736655778744
C           95.23967573908941        2.60054176849495        0.03043639944061
C           94.52695968451488        1.38593330993778       -0.25204425424610
N           93.18470966373657        1.63348101774802       -0.21602756798722
H           96.20344874248859        0.13445234754667       -0.52899491979509
H           96.19759695611337       -2.42650790335519       -1.10925307911236
H           94.28116315429639       -4.27068219631872       -1.45195640792476
H           92.62905296641114       -5.16018149302606        0.43580292578282
H           93.11067514031815       -9.61062174862599        0.65828960343017
H           91.53220629826797       -8.44833206657943       -2.08159971920401
H           90.52593824961983       -6.86822825166207       -3.70115015452218
H           90.58146086108732       -4.44156839560646       -3.26335146568132
H           88.94982007437183       -4.20863349323738       -1.19147491560759
H           87.10932704607526       -2.28844627646797       -0.86062669211140
H           87.22650784325219        2.93516787951369       -0.06404365563963
H           89.15091700519423        4.76326756825436        0.30996585263334
H           90.82324469840081        4.85558736939090        2.39719144997007
H           90.86730960250171        7.27041920364766        2.90837360673233
H           91.90706066614179        8.85790768698354        1.29952070233821
H           93.92214503437394        8.45315273310339       -2.69320249063272
H           92.81886381595535        5.59302536580046       -1.32052524525067
H           94.48138213815776        4.60123755308742        0.49029082746746
H           96.31403432741585        2.68874617326221        0.07116799051283
C           52.22568898168306        0.33219546105831       -1.22514601275070
C           50.99896796940482        0.31144828183574       -1.16160557553838
C           49.65775419199588        0.28968452763238       -1.07611021222778
C           48.43708853234384        0.27231429494013       -0.98625084189459
C           53.56824960846835        0.35750571123710       -1.28158771451794
C           54.79160423241588        0.38163553985533       -1.32241722879906
C           68.27569722928925        0.61977050109468       -1.44366031103407
C           67.04716210559741        0.60510753424767       -1.46124204289115
C           65.70367297935117        0.58681413342631       -1.47118595445047
C           64.47939379067016        0.56788095179171       -1.47121138763870
C           69.61898658064798        0.62970396976004       -1.41493262005203
C           70.84290255398159        0.63521228068759       -1.38083442102723
C           84.30387781643839        0.42311927006885       -0.59963764482447
C           83.07757286711025        0.46519065529817       -0.66003984320273
C           81.73635829192931        0.50368782349975       -0.73720116617090
C           80.51496941191454        0.53538299615653       -0.81603051707399
C           85.64622642636212        0.37941174702100       -0.54666838023331
C           86.86910849452632        0.33883142297846       -0.50720119050251
Zn          59.63506605814819        0.47771005479165       -1.40920282108618
C           56.19540941227800        0.41178982339953       -1.35703033164510
C           56.85449545483920       -0.73694186497529       -1.83986349462215
C           56.19214936993744       -1.91080769324157       -2.32668036209809
C           57.16005655517544       -2.78992772356287       -2.69174573756843
C           58.42391052380178       -2.16285933623465       -2.42230874428342
N           58.20102863395984       -0.91100645568888       -1.91462196915085
C           59.67821445156925       -2.73401056477957       -2.66223783461216
C           59.69669371482833       -4.12226575316667       -3.19009280320131
C           59.16914703492012       -5.16922622777607       -2.43983127807975
C           59.18961463665077       -6.47345994680397       -2.93251122458939
C           58.61625538858993       -7.54674378109654       -2.08232400660166
O           58.68807890354218       -8.76586433319548       -2.63661160803879
O           58.12717885912293       -7.36616026633954       -0.99652391268099
C           59.73736633492106       -6.73805466941433       -4.18772737099549
C           60.26114061607598       -5.69688901097972       -4.93784531003045
C           60.24408164770936       -4.39962429125224       -4.44485406560591
C           60.91671890065778       -2.12136940098429       -2.44384225040871
C           62.19698104450032       -2.74011331888167       -2.64615151591033
C           63.14106439202646       -1.82352159537592       -2.31141021020545
N           61.10613063042354       -0.84750620392124       -1.97894619697611
C           62.44730554718210       -0.64134098771967       -1.89370984476421
C           63.07540163469887        0.54499230495011       -1.46250225081489
C           62.41505992071371        1.70749980660065       -1.01448490037995
C           63.07558934762855        2.91150672162085       -0.60513356590040
C           62.10764771938032        3.78991712890381       -0.23798696593903
C           60.84615690723351        3.12565436587517       -0.41203500364085
N           61.06983055625616        1.86426228042180       -0.89570839625524
C           59.59270696598293        3.68810410922847       -0.14910526882406
C           59.57597618967807        5.06473464877057        0.40878835969688
C           58.98386446887502        6.11219903564588       -0.29989959961773
C           58.96891724882137        7.39887986777260        0.22089280368527
C           59.54102412310755        7.65524497409891        1.45563353619419
C           60.13454734553513        6.61638631157816        2.17442880630354
C           60.73555773065250        6.93065407072187        3.49487926237407
O           61.28320538901472        5.86794855585522        4.10234380187417
O           60.74460458637808        8.02709151254229        3.99344186210161
C           60.15247709242278        5.32561212059819        1.65000845587289
C           58.35439970507318        3.07066027807606       -0.35560949554938
C           57.07689256574037        3.64291697749162       -0.03472000438348
C           56.13277746082755        2.72814343497481       -0.37449467344233
C           56.82423122340413        1.58667963584220       -0.89618521721792
N           58.16409490933216        1.81656158554322       -0.87098462745156
H           55.12276001186743       -2.03688082386574       -2.38412810724201
H           57.03079758230893       -3.77272143617955       -3.11549139588541
H           58.75017113811720       -4.98375566226297       -1.45681773566083
H           58.29531777133846       -9.40688587143215       -2.02205578435499
H           59.75083995069080       -7.75155142881706       -4.56990836442116
H           60.68567343116081       -5.89485419672424       -5.91561812046743
H           60.64552852417535       -3.58828847534699       -5.04179526320313
H           62.35286337301802       -3.75083784927490       -2.98739603195361
H           64.21348187171641       -1.93398874999237       -2.33518626951039
H           64.14352172653183        3.06092993510460       -0.60693272465238
H           62.23506457456214        4.80242074818706        0.10962852530581
H           58.54587886752146        5.91590314119565       -1.27220969002824
H           58.50932527766749        8.20281381176363       -0.34275288473577
H           59.53715351490987        8.65394319970295        1.87747414465584
H           61.65150722508380        6.15517977531737        4.95363624584415
H           60.60285769104079        4.51823205223233        2.21523249863698
H           56.92312042037565        4.61463124062023        0.40622906462171
H           55.06206664074309        2.80945845150696       -0.27561969031515
Zn          75.68086097394963        0.60481417699676       -1.14250404884237
C           72.24613974043406        0.63367265653712       -1.32856070061949
C           72.90507261315813       -0.53242006160883       -1.76906025277063
C           72.24625259368720       -1.68187738653938       -2.31531042944836
C           73.21239044516297       -2.58568132051056       -2.61959933319840
C           74.47049440416427       -2.00066919703364       -2.24791745895116
N           74.24745708534886       -0.74628937976883       -1.74575418944594
C           75.72140176815020       -2.61026930981981       -2.38964892532328
C           75.74362052610978       -3.98786362166915       -2.94378222143417
C           75.11026073138001       -5.03295478508236       -2.27754387122077
C           75.13338819602083       -6.32432177870334       -2.80327744201823
C           74.44149526195723       -7.39643835580162       -2.04486668314166
O           74.52185129115171       -8.60222917166574       -2.62669764371423
O           73.85573108641537       -7.22583444640840       -1.00637715254172
C           75.79176930067035       -6.57810078841732       -4.00649630337027
C           76.42277555882693       -5.53907730479310       -4.67230084455877
C           76.40164316879743       -4.25483215155428       -4.14690815548029
C           76.95581400719585       -2.04136057824757       -2.05694384995485
C           78.22591389117837       -2.70626270496917       -2.14188338840140
C           79.16829462463272       -1.82221453343728       -1.72461911601930
N           77.14786335827645       -0.77347183820059       -1.57783923804153
C           78.48301038919556       -0.61306503562700       -1.37619498983765
C           79.11410792888678        0.56004044430910       -0.91398407425717
C           78.46046014418948        1.75535021873565       -0.55147323198892
C           79.12717595938459        2.95224045173997       -0.13181712146655
C           78.16371063244004        3.87342314079832        0.12629772660390
C           76.89770009349810        3.24179039192829       -0.12145508417161
N           77.11582596792765        1.95741785065789       -0.54305831968740
C           75.64599007833520        3.84842979536022        0.02950397922689
C           75.62948555208085        5.25018194452654        0.52035479401152
C           75.10711137992359        6.27113818709396       -0.27687423816007
C           75.09322879010404        7.58398721299143        0.17347895686762
C           75.59768390209329        7.89395746142488        1.42530011355164
C           76.12024680634424        6.88236105814225        2.23259335289214
C           76.65067600364895        7.25506573737697        3.56791789112467
O           77.13298220909074        6.21515815655641        4.26392914737549
O           76.66046329112082        8.37702045853990        4.00598103036057
C           76.13616331250799        5.56469551799531        1.77943541061586
C           74.40734555078662        3.25564214627555       -0.23873227717887
C           73.12774382979860        3.86770025949174       -0.01344440469799
C           72.18271978898171        2.96743885098161       -0.38776435947777
C           72.87499061220490        1.79705924048515       -0.83951596951381
N           74.21623356257982        1.99331549428201       -0.73338023713060
H           71.18091343623021       -1.77512878112502       -2.45353814425387
H           73.08557850058634       -3.55934947823389       -3.06456908910063
H           74.60481807683244       -4.85726380770045       -1.33421290594363
H           74.04745576992090       -9.24330465328633       -2.07279903932758
H           75.80704958224838       -7.58152802287296       -4.41431006939539
H           76.93433348255297       -5.72832105780329       -5.60928928042000
H           76.88704152707416       -3.44424525997098       -4.67904016190634
H           78.37540079701876       -3.72397238864288       -2.46479879110330
H           80.23378664227891       -1.97121995979200       -1.65143711685533
H           80.19651532664356        3.06843043097926       -0.05497212338730
H           78.29839107416387        4.89397277640902        0.44651842884482
H           74.72330246213787        6.03224017802197       -1.26249280779978
H           74.68832396264733        8.36608655006026       -0.45863828655166
H           75.59479066878421        8.91393108685692        1.79274100806184
H           77.45818410116908        6.54105529069470        5.11884320305469
H           76.53006495104599        4.77941910536843        2.41374436783596
H           72.97261312974125        4.85408279521151        0.39311810357238
H           71.11041550171983        3.07755073457774       -0.35842016242029
