272
 energy: -543.936393556513 gnorm: 0.000836073664 xtb: 6.5.1 (b24c23e)
Zn          47.12679716343221        0.05059382449061        0.00830746233556
C           43.71862427468849        0.09726213049906        0.05444773515845
C           44.34925277562994       -0.20858834296023        1.25430081593052
C           43.67615956978698       -0.53002539872796        2.48197409632354
C           44.63554603040693       -0.76379132652984        3.41149713520398
C           45.90794468530657       -0.57650060502502        2.76479973659016
N           45.69895830388305       -0.25077966881268        1.45710036066407
C           47.16062650860385       -0.72886896333764        3.37132459844858
C           47.17856266496885       -1.07329832899323        4.81438552782171
C           46.63335791616380       -0.19863055703893        5.75771074436170
C           46.65832222396205       -0.51326084280130        7.10645174443039
C           47.22784589716067       -1.71379004537516        7.49893726028951
S           47.27617064333476       -2.11236639182890        9.20502374973570
O           47.20364388418758       -0.92681223854433       10.00736708498473
O           45.85005747402949       -2.88429522770793        9.30864271166381
O           48.31619396409544       -3.06035549442231        9.47893979124072
C           47.77525619351366       -2.60253818190384        6.58780076664094
C           47.74913070312984       -2.27498684611022        5.24240871195729
C           48.40012750332838       -0.58667508676703        2.73709555229763
C           49.68032216739430       -0.68645172697518        3.38309431846677
C           50.62524091148934       -0.47648600517295        2.43193642255081
N           48.59140178264310       -0.30315725801103        1.41203214302552
C           49.93345255016604       -0.23854213543892        1.19891521955826
C           50.56237628950988        0.01110125103111       -0.03641208988881
C           49.90784043248203        0.27164468986901       -1.25605668417187
C           50.57257509363005        0.48861422786489       -2.50764145777284
C           49.60814670357898        0.71508712673113       -3.43527641260900
C           48.34329381800733        0.64797098214037       -2.75575220687015
N           48.56250121774029        0.36583326065705       -1.43477861856887
C           47.09112428012977        0.81781828463792       -3.35751305354741
C           47.07715763887261        1.14896097523902       -4.80366135569631
C           46.47650880486334        0.28251912897428       -5.72053908668233
C           46.46522997937385        0.58500701058978       -7.07223018781675
C           47.05786117113541        1.76383718158636       -7.49473814950029
S           47.03885068199948        2.15798346768493       -9.20284577042677
O           47.15696926613881        3.57242105956698       -9.40836533462099
O           48.45628534083244        1.48432393153684       -9.62434150462673
O           45.98236080908389        1.45439168894197       -9.86646854968101
C           47.65493840123541        2.64697096537776       -6.60956442170232
C           47.66374669531282        2.33205354693204       -5.26091666630576
C           45.85180458958224        0.70321064261514       -2.71600674997301
C           44.56799196767061        0.92546232997403       -3.32836738114317
C           43.62814069419680        0.72242995398302       -2.37217282716389
C           44.32500161404941        0.38442197799513       -1.16232223601528
N           45.66942434660251        0.38749589691518       -1.40191871946410
H           42.63327681008979        0.11274329758126        0.06908744601632
H           42.60532079662045       -0.57605645947747        2.60317161525997
H           44.49880634768185       -1.04887070922791        4.44235444795657
H           46.20497776852812        0.74180763067605        5.43110850625525
H           46.25048324230242        0.16334805167531        7.84689401664100
H           45.71476762409122       -3.21531167659864       10.20482471879057
H           48.21672785346569       -3.53014881267732        6.92985454202341
H           48.16364322457002       -2.96023453846941        4.51217612104746
H           49.83487911997807       -0.87840105249218        4.43259531739546
H           51.69720363820034       -0.47480410285786        2.54864090242856
H           51.64090779003277        0.46173736572290       -2.65166865621750
H           49.73950526344290        0.89863497023416       -4.48947485492548
H           46.02907138402616       -0.64057401912332       -5.37082618901335
H           46.00290444221221       -0.07980496836402       -7.79097993284240
H           48.73967079278807        1.81950212887148      -10.48336669177208
H           48.09739059972042        3.56609599550561       -6.97270775469199
H           48.11475690288480        3.01497371407330       -4.55040113386746
H           44.41119346228428        1.21222820922401       -4.35586242849678
H           42.55619359595316        0.79936482022327       -2.46420005667994
Zn          95.29163138043018        0.04209962467697       -0.01011294494991
C           98.69984376121370        0.12239229169639       -0.03567520499613
C           98.06831481884949        0.27771441374650       -1.26362097320562
C           98.74052241900577        0.43818874759225       -2.52293840641129
C           97.78042024279991        0.55661962418905       -3.47334392788374
C           96.50840825630414        0.48072125399681       -2.80363276395355
N           96.71840253053526        0.30249652422657       -1.46806807706345
C           95.25541285554293        0.55012136879469       -3.42466197022104
C           95.23794421376655        0.76571142073750       -4.89258471058096
C           95.77044050230589        1.93540810128266       -5.44076048501291
C           95.74772433689461        2.14514616424742       -6.80972264422511
C           95.19335782543104        1.16980645750083       -7.62277102416037
S           95.14979149959836        1.43408571599350       -9.35487194104634
O           95.21037313195833        2.83390224479926       -9.65663644100304
O           96.58297780841758        0.76776709814515       -9.73279350064545
O           94.12044255645337        0.64650849453973       -9.96794933710589
C           94.65854048172305       -0.00086658864803       -7.10972796277246
C           94.68206785870429       -0.19726531945573       -5.73891721413349
C           94.01649376684767        0.43555818830845       -2.78402338220706
C           92.73538980686756        0.56484594392234       -3.42297224765112
C           91.79135026199282        0.40486330577191       -2.46134082007681
N           93.82638911502629        0.21428416870094       -1.44690090527286
C           92.48445193014192        0.18511222510320       -1.22560914483534
C           91.85671681792820       -0.02748449003736        0.01729733272268
C           92.51194817408781       -0.21888431178985        1.24927235087231
C           91.84804512287236       -0.47086827393251        2.49476877808912
C           92.81314821826781       -0.59834987103011        3.44036526383594
C           94.07762833441673       -0.41460239059035        2.78193845242118
N           93.85737926544925       -0.19591279301373        1.44907575650586
C           95.33037761347344       -0.47823931381562        3.40253053832004
C           95.34717845245770       -0.70483886636653        4.86873560169644
C           95.94849669049522       -1.84959016053800        5.39809320346899
C           95.96500252845236       -2.06816651474538        6.76576753844105
C           95.37680956064371       -1.12822531457684        7.59639140620806
S           95.40460223801968       -1.39230241454760        9.32928599655409
O           95.29513900663241       -0.15306762806019       10.04294718344223
O           93.98510555457443       -2.16830070006586        9.48191552172945
O           96.46010980386670       -2.29488545849644        9.67988061902255
C           94.77845656593344        0.01985593468105        7.10257431595564
C           94.76441687530694        0.22578933368323        5.73304608317865
C           96.56913193272872       -0.34720497832269        2.76292155969008
C           97.85321081528578       -0.36301228107372        3.41365292786618
C           98.79219883590375       -0.19471006441174        2.44988889902194
C           98.09450496801112       -0.06416211628959        1.20101182492780
N           96.75046683128664       -0.15501087502856        1.42510378916743
H           99.78505080288177        0.14885039671323       -0.04350105006141
H           99.81135589215356        0.44904739728406       -2.65218074412575
H           97.91653218405163        0.67377770293952       -4.53653941558155
H           96.18743065890104        2.69178745340206       -4.78607251285669
H           96.14597273656203        3.05366968611330       -7.24372000389075
H           96.70291407869229        0.75708974384125      -10.69013171272393
H           94.22871120509667       -0.74003270081840       -7.77399974672904
H           94.27742202918886       -1.11021396644701       -5.31773594148017
H           92.57961284057761        0.76633391117379       -4.47050746340183
H           90.71908116016610        0.43858763254840       -2.57003419546828
H           90.77977905954515       -0.54759099191468        2.62011340033871
H           92.68248828856569       -0.81074918945490        4.48921414739993
H           96.39282660352448       -2.57827927460035        4.73011157482073
H           96.42827540505732       -2.95193877989932        7.18606202490186
H           93.70128626367762       -2.16047144055095       10.40385161104543
H           94.33938655622256        0.74011594446476        7.78145431755702
H           94.31273726777539        1.12344053833381        5.32708522133767
H           98.01070487836627       -0.47588979518340        4.47432053615767
H           99.86403456756318       -0.15331625630423        2.56354652021079
C           55.76591275897415       -0.02020081785756       -0.06561577313246
C           54.53819421268897       -0.01465094800938       -0.06804983467452
C           53.19263406307402       -0.00824789292927       -0.06086540364811
C           51.96934630711795       -0.00126380802146       -0.05245260414235
C           57.11136280176556       -0.02460545461350       -0.06678613737828
C           58.33485408016938       -0.02836931596742       -0.06408743628119
C           71.82386338154235       -0.03011375629321       -0.02683757934793
C           70.59525711572945       -0.02501031757821       -0.03071983078395
C           69.25134524526015       -0.02494039243506       -0.03442311500669
C           68.02708222253256       -0.02551233328958       -0.03588566188655
C           73.16776659776444       -0.03281270448654       -0.02300582460142
C           74.39203009825728       -0.03620807375726       -0.01971647174390
C           87.88100330129188       -0.07453570521997        0.03328612526185
C           86.65326653436212       -0.08010555005060        0.02960555569839
C           85.30784315507478       -0.08202649385874        0.02558618185169
C           84.08436819901758       -0.08069101539612        0.01851583877615
C           89.22650947529296       -0.06245104392261        0.03216957761904
C           90.44976403546106       -0.04882318372785        0.02790225617776
Zn          63.18197192584107       -0.02704181920877       -0.04987929752219
C           59.74136661757925       -0.02819502800121       -0.06077943035093
C           60.38237360136162        1.05215362136779        0.57700420734399
C           59.70263498649394        2.12429219926692        1.24227953282939
C           60.65672550474013        2.96558854118470        1.71615386158611
C           61.92926844319091        2.41842027584466        1.33530643595993
N           61.72611336557426        1.24963149506217        0.65308052187777
C           63.17516914172809        2.98006613510670        1.63631641890308
C           63.17137201096624        4.27319055554558        2.36459210814811
C           63.74044891799947        4.36659554819506        3.63712474448366
C           63.73666241376968        5.56977875706215        4.32340665014291
C           63.16116803798517        6.67679762273224        3.72123069762026
S           63.16444662172014        8.20618652405182        4.57847761741693
O           63.07914698455443        9.30935832411904        3.66609632451041
O           61.72500587693366        8.07234792381724        5.31959915836823
O           64.19332494356547        8.21851060479802        5.57503015113077
C           62.59473462407531        6.61752625443337        2.45812092414402
C           62.60022601371756        5.40809938038722        1.78311639408275
C           64.42327131405523        2.43496484822566        1.31575967915803
C           65.69325225733996        3.04990020947179        1.58525746380488
C           66.65091188302034        2.20983514716587        1.11619369585666
N           64.63179479262283        1.24350774583509        0.67485961862655
C           65.97593861503513        1.08019929848938        0.54864137999498
C           66.62241084451183       -0.02582946142488       -0.03967503843974
C           65.98018355110027       -1.13232468755563       -0.63174147498343
C           66.65929670243705       -2.26173198595883       -1.19478984033405
C           65.70502698159906       -3.10253103209407       -1.66937998231534
C           64.43306620502828       -2.48822300316940       -1.40792895881156
N           64.63693442514206       -1.29632803048295       -0.76634204139012
C           63.18738570046857       -3.03453120772848       -1.73565471167922
C           63.18976883582234       -4.32825306002565       -2.46290642436792
C           63.76539919518913       -4.42119829217239       -3.73256611024823
C           63.76896256023311       -5.62511301819419       -4.41746304108179
C           63.19423077813349       -6.73340383578350       -3.81678233976822
S           63.20777097834932       -8.26374666505965       -4.67199933778609
O           63.11978724190513       -9.36616878861727       -3.75894533648146
O           61.77261749455019       -8.13556302227638       -5.42284713805138
O           64.24307285342086       -8.27414215512387       -5.66189058910387
C           62.62133277423822       -6.67456078274058       -2.55657665717267
C           62.61933973671502       -5.46427798130063       -1.88303045411527
C           61.93922670519576       -2.47389488361443       -1.44229302089506
C           60.66937128067752       -3.02283065171891       -1.82954163881475
C           59.71184610460007       -2.18173770766003       -1.36219583878012
C           60.38684432045464       -1.10823223995379       -0.69431471075333
N           61.73119751086414       -1.30446839284805       -0.76275994676948
H           58.63209384252607        2.21189265498012        1.33694784938096
H           60.51269071935624        3.87045829082142        2.28418330917271
H           64.17585394786315        3.48587669594482        4.09463922730287
H           64.17492574084075        5.65302713810282        5.30997185468271
H           61.44340641170236        8.93193498844055        5.65500962757202
H           62.16475986826701        7.50554372069275        2.01204263292840
H           62.17311364668943        5.34295320573048        0.78917097693619
H           65.83307090696195        4.00745241045041        2.06032656060733
H           67.72094440285314        2.34029842248175        1.14241468621906
H           67.72953093444842       -2.39170513996707       -1.21427197455467
H           65.84830812338586       -4.06022694993353       -2.14312311564311
H           64.20046654523308       -3.53955818415852       -4.18863715737059
H           64.21251111780269       -5.70817641000893       -5.40168210877800
H           61.49507472320364       -8.99719839160946       -5.75652967117943
H           62.19240228168791       -7.56357470465692       -2.11148299149843
H           62.18716041303544       -5.39943443245542       -0.89125460771001
H           60.52948514288990       -3.92884198448450       -2.39681287323574
H           58.64187775945524       -2.27031648039773       -1.46249991900979
Zn          79.23764734331020       -0.05528686057144       -0.00694485515130
C           75.79668717239392       -0.04080165248095       -0.01717979342095
C           76.44345161041136        1.04142048908230        0.61356583913309
C           75.76873365123238        2.12201841038883        1.27012358866891
C           76.72690591226102        2.95980168224313        1.74225017067802
C           77.99693135230335        2.40115801295984        1.37009804551816
N           77.78776682220717        1.23001473201988        0.69282783750417
C           79.24526249249423        2.95317309056893        1.67658836592439
C           79.25051738407720        4.24977857996217        2.39897323512184
C           79.81055849896742        4.34249395466492        3.67549297220994
C           79.82274769712586        5.55073263685542        4.35279081137517
C           79.27231382265289        6.66323340258135        3.73754808180025
S           79.30052312145344        8.20000740155292        4.58135910665493
O           79.25758622584121        9.29673186579681        3.65822870231285
O           77.84637312105659        8.11152825225961        5.29991303496263
O           80.31395346643826        8.19426264240357        5.59347092512880
C           78.71324000946338        6.60401379210773        2.47113686376340
C           78.70223121036919        5.38953764102153        1.80528730362864
C           80.49106710129104        2.39691406901756        1.36515672947398
C           81.76431942459158        3.00124425494900        1.64359890737311
C           82.71804254308246        2.15435405144174        1.17925347157654
N           80.69356110323048        1.20480848400042        0.72450007372885
C           82.03750476788757        1.03136860708592        0.60489577659245
C           82.67786186016602       -0.07414532190087        0.01118993437893
C           82.03182803633216       -1.17143490108344       -0.59130779886020
C           82.70618749018962       -2.29897375937024       -1.16407293144721
C           81.74830653119717       -3.13267385190818       -1.64353506923415
C           80.47879637872445       -2.51612861847069       -1.37487883820742
N           80.68739498325338       -1.32977888733102       -0.72564108442104
C           79.23035109976186       -3.05777874787168       -1.70114269925267
C           79.22833592557612       -4.34777755607422       -2.43527121325422
C           79.79698955044654       -4.43353741646661       -3.70849921762204
C           79.79831411613340       -5.63405874082629       -4.39947017953457
C           79.22852067843969       -6.74601958311051       -3.80106760168262
S           79.23935117749849       -8.27240891028253       -4.66378608908606
O           79.16061105855752       -9.37928960008452       -3.75524241489090
O           77.79857548857127       -8.14376785224617       -5.40292143343866
O           80.26762753171377       -8.27544933192186       -5.66095493834927
C           78.66192215381375       -6.69405189297152       -2.53770578379491
C           78.66202768304693       -5.48717680863430       -1.85806576504881
C           77.98486181369114       -2.49603408066378       -1.40060249489151
C           76.71238894047478       -3.04182080467403       -1.78345501729672
C           75.75847052016006       -2.19887083941215       -1.31198685348941
C           76.43829925580340       -1.12696515047315       -0.64650214575392
N           77.78142457558096       -1.32659136103909       -0.71862421241225
H           74.69847823218885        2.21753558488428        1.36037732979308
H           76.58756341658199        3.86947131556535        2.30377446715262
H           80.22758517720297        3.45790261148864        4.14256684421532
H           80.25536243477798        5.63382551848398        5.34185651595257
H           77.56656097609917        8.98734517337163        5.59212101268792
H           78.30263677129466        7.49611148927394        2.01504641234692
H           78.28134739171161        5.32411282094986        0.80870513682445
H           81.90905519722993        3.95684862561716        2.12107970229404
H           83.78887995862065        2.27632902032271        1.21209137967229
H           83.77598403742435       -2.43209351441554       -1.18610963775579
H           81.88748322068139       -4.08702655459469       -2.12517809282182
H           80.22863913796994       -3.54918662288565       -4.16255902847633
H           80.23666397166214       -5.71153764621672       -5.38647055150535
H           77.51502829893191       -9.00570285481844       -5.73075820839224
H           78.23634747809864       -7.58581279581379       -2.09488243408968
H           78.23497159474056       -5.42761614652557       -0.86374346813819
H           76.56851227276320       -3.94708413096743       -2.35089808103792
H           74.68801860902508       -2.28503937973988       -1.40900168224743
