140
 energy: -234.046600134302 gnorm: 0.000233757887 xtb: 6.5.1 (b24c23e)
Ni          15.05041559561150        0.02893858091401       -0.00079953061476
C           11.66301458424295        0.09441406798860       -0.06878792916949
C           12.30945932557926        0.90088402214123        0.84537047864307
C           11.63187528205883        1.72721596299226        1.79621899429779
C           12.58550420471424        2.44529701957941        2.43598701339114
C           13.84418634412230        2.06931882231491        1.86286518901863
N           13.66755107174774        1.08789443026823        0.91973027882412
C           15.05541077265958        2.67551057909559        2.17746031059951
C           15.06414923353242        3.81048407599737        3.12727640873312
C           14.32861369109868        4.97025899196787        2.86755430522685
C           14.34321664593932        6.02962439595430        3.75491358927753
C           15.08586652458025        5.95582068152007        4.93998497263408
N           15.10847625412161        7.06230520469342        5.77526482296967
C           15.44139773367915        6.89748238081856        7.18379540964788
C           15.82721862376416        4.79994299786206        5.20207591510758
C           15.81378223510553        3.74710206813198        4.30346496236200
C           16.26128481081484        2.25369836126651        1.63061833311269
C           17.51504620943579        2.90251941611243        1.86644257657958
C           18.46700335572764        2.14675135433665        1.26681747751286
N           16.44042702993355        1.13561611788965        0.84720412746566
C           17.79231441298515        1.04494867316952        0.65955739285053
C           18.45796904046439       -0.02142004548831        0.04745472416227
C           17.77850369598396       -1.07277613665454       -0.57567176495011
C           18.43662705841345       -2.20079465815973       -1.15205581079635
C           17.47909487759603       -2.93660645928353       -1.76751089150678
C           16.23962645158834       -2.24685272641058       -1.57643933338402
N           16.43025099271797       -1.12598646693388       -0.79945695570372
C           15.03956889868298       -2.63171782201419       -2.16203127227950
C           15.04028935806205       -3.77555324056092       -3.10091539596600
C           15.83928475024114       -3.75594780915829       -4.24585955141943
C           15.84493442180744       -4.81777070453511       -5.13387585054872
C           15.04465589752416       -5.93846813169678       -4.89297289662220
N           15.05397053320887       -7.05300844380540       -5.71755833190307
C           15.45143590067989       -6.91638692417285       -7.11230539033756
C           14.25138661459972       -5.96855644577854       -3.73916980543736
C           14.24585620886382       -4.90056667431789       -2.86215820893474
C           13.84121374126697       -1.97648562569075       -1.90014602461362
C           12.59334261304812       -2.30530813269786       -2.52362970929415
C           11.64389981738850       -1.54413518406778       -1.92897835146081
C           12.31406385530044       -0.73993550837110       -0.95423096641033
N           13.66541805209897       -0.98190807121657       -0.97082088694020
H           10.57960302832652        0.11618660996592       -0.09137543653658
H           10.56343355949209        1.74095313210001        1.94275700934151
H           12.45982768933131        3.16521825335266        3.22840181148409
H           13.75772354240277        5.04683448220069        1.94861328839244
H           13.77771679072299        6.92913371099662        3.53533394776022
H           14.31477567756701        7.67576792765294        5.63523200005858
H           16.49309100664109        6.62868509081894        7.29043870676170
H           14.82230171537621        6.12665663804823        7.65692140272280
H           15.27316929859724        7.85155495051147        7.68333395885618
H           16.41779666339662        4.71588992644383        6.10602450121898
H           16.37963219997017        2.84897457435430        4.52631636605291
H           17.64069129424454        3.82221015928271        2.41410898396207
H           19.53252504663954        2.30725266949311        1.23183918127446
H           19.49545416495977       -2.39247311763907       -1.08512715687065
H           17.59224657098374       -3.86726012524298       -2.29910266311179
H           16.45092102474648       -2.88456885736137       -4.45346858138233
H           16.47525289409886       -4.76819027725746       -6.01323637417853
H           14.22998671758140       -7.63118370713681       -5.60533620202434
H           14.88919645522458       -6.12156435707208       -7.61577970203389
H           15.25887980331898       -7.86588139545770       -7.61178141440169
H           16.51814720051908       -6.69801688709856       -7.17744844597016
H           13.63910436185484       -6.84083102771461       -3.53573045646123
H           13.63491923587356       -4.94346783296504       -1.96706017599045
H           12.47172268523740       -3.02472502012768       -3.31715333043660
H           10.58290927869644       -1.51551856615358       -2.12053120782994
Ni          33.60665754403395       -0.00746121628983       -0.03023211198784
C           36.99395525467396        0.05015186680209       -0.11108209813886
C           36.34896171879330       -1.01918463673766       -0.69803449291994
C           37.02805299882181       -2.12668433457169       -1.29662244933805
C           36.07531759477798       -2.91027233030432       -1.85577691749593
C           34.81569724518879       -2.27091662692047       -1.61353950054653
N           34.99093903699326       -1.13529188460652       -0.86280850435702
C           33.60495333301819       -2.71237997928774       -2.13577631748606
C           33.59768202678773       -3.88698250377730       -3.03609566381780
C           34.33393447376774       -3.88551261770606       -4.22417490052696
C           34.32043117731581       -4.98211078558018       -5.06507601462310
C           33.57798250151332       -6.12300719032566       -4.73569784105626
N           33.55632734018351       -7.17902348551912       -5.63389904091707
C           33.22285521200045       -8.51790501841186       -5.16682731444779
C           32.83587037028638       -6.12766726127893       -3.55095234360627
C           32.84839316023176       -5.02156656525009       -2.71874854339310
C           32.39833984155849       -2.08774463618810       -1.84415390225779
C           31.14522814556002       -2.46092252951097       -2.42632429640556
C           30.19236326815308       -1.71077124406951       -1.82115069880695
N           32.21791670614483       -1.07837438278654       -0.92515791279093
C           30.86586880948398       -0.87607822795644       -0.87901230433137
C           30.19901302495920       -0.04540913377611        0.02666103176471
C           30.87724867045991        0.79273220187612        0.91703005552222
C           30.21773735118276        1.60106512949000        1.89140046330259
C           31.17437250856222        2.36230222308856        2.47656340510566
C           32.41474771821272        2.02549376214237        1.84678457488209
N           32.22546193037542        1.02284523664500        0.92198025288862
C           33.61432831281294        2.68113359824442        2.09628309644636
C           33.61208141414968        3.84692877213507        3.00784272204576
C           32.81417041672417        4.96024931096465        2.73675676868978
C           32.80703613586726        6.05881290409954        3.57888212561264
C           33.60451277002761        6.06816448167813        4.72707542716317
N           33.59327686883177        7.11614418337868        5.63480071857391
C           33.19828732184374        8.44781113497063        5.19596206841744
C           34.39672421509917        4.94849755159630        5.01025860551249
C           34.40394093150663        3.85939557597183        4.15958343447182
C           34.81331367522723        2.28380160086709        1.51450284823086
C           36.06043078853200        2.96513277262139        1.70032142906569
C           37.01054744248335        2.22117709070895        1.08533429490377
C           36.34162410873653        1.09449435826439        0.51162177769700
N           34.99028329380644        1.16118417248222        0.74501186872957
H           38.07730440974935        0.06955012527475       -0.13842530465152
H           38.09678663791730       -2.27064078340105       -1.27901268308181
H           36.20221337253474       -3.84117393058786       -2.38429238982433
H           34.90448081334429       -3.00493180087442       -4.49855236436435
H           34.88652872407381       -4.96323798927803       -5.99043565804370
H           34.35040783521186       -7.17571980439131       -6.26263125406129
H           32.16994595711312       -8.56441385227212       -4.88580726123260
H           33.83849709628743       -8.81050772986575       -4.30853565166860
H           33.39548967935623       -9.21360416466584       -5.98797047670215
H           32.24535013974666       -6.99189482115300       -3.27278110334086
H           32.28196573776442       -5.04396256523012       -1.79401240046267
H           31.02053091811786       -3.19697021122716       -3.20363098267127
H           29.12698810455341       -1.71250700190615       -1.98631013274972
H           29.15861430148362        1.57742836308517        2.09150932036573
H           31.06011036076263        3.08412142876887        3.26868330693148
H           32.20462368023332        4.97269732248919        1.83964807403337
H           32.17773193965046        6.90639713502742        3.33679098464671
H           34.41573449055592        7.13225403989384        6.22569230367419
H           33.76587353869867        8.76662745833765        4.31418174569461
H           33.38575521790193        9.14170608493925        6.01540786667037
H           32.13300213022722        8.46383191006776        4.96221707164861
H           35.00688479993696        4.94027344586465        5.90735730067408
H           35.01415115549585        2.99513189157835        4.39830087520233
H           36.18106927736054        3.89556583090428        2.23113736183715
H           38.07127552503296        2.40336033199785        1.01545220808721
C           19.86178426360450       -0.03744660304619        0.05877162908166
C           21.08605303812474       -0.04931296366129        0.06284929824577
C           22.42892889820187       -0.05762743235631        0.06545876511867
C           23.65941249990090       -0.06226217293412        0.06488986068944
C           24.99757112932242       -0.06469321756094        0.06256146887029
C           26.22802800421200       -0.06400738636052        0.05826629588135
C           27.57090543668198       -0.06120845683870        0.05085848842947
C           28.79519660177766       -0.05439776583467        0.04377620225313
