76
 energy: -139.327232902391 gnorm: 0.000609662166 xtb: 6.5.1 (b24c23e)
Cu           7.78219165445564       -0.02269729951291       -0.00964887181362
C            4.35893761844570       -0.04886614883516       -0.04540909731452
C            5.00393481078031       -0.91474712544862       -0.91729689827493
C            4.34607394973920       -1.81329281521972       -1.82647316508601
C            5.31795975471921       -2.48006909416574       -2.49733231193680
C            6.57743365445391       -1.99578726227268       -2.00249855588811
N            6.35571510294537       -1.04739936021972       -1.04688739570046
C            7.82327067658322       -2.43194486547584       -2.43016486151384
C            9.05338644214159       -1.98974338210516       -1.96671039380579
C           10.32552870417724       -2.46817249162095       -2.42785070300017
C           11.27676000626469       -1.79379767986233       -1.73331710393759
N            9.24813988380578       -1.03645676229699       -1.00430201548753
C           10.59150207017595       -0.89886694996498       -0.84542295720838
C           11.22542193543913       -0.00928297937802        0.03917812763217
C           10.56004565130866        0.87973208436644        0.90060982063177
C           11.21250881210644        1.78755878422808        1.79988772852250
C           10.23657643977933        2.46154372987793        2.45976662936457
C            8.98182385573117        1.96842682144521        1.96726870861964
N            9.21142254052239        1.00876793061554        1.01910270415896
C            7.73564788751908        2.40104861561014        2.39608925254329
C            6.50558406108670        1.94418702829377        1.94501913111663
C            5.22870535073165        2.41047995778399        2.41176272168666
C            4.28136951950381        1.72193436054615        1.72779103148006
C            4.97176336969875        0.82979518667858        0.83672173506337
N            6.31838242039068        0.98590905440212        0.99182097846998
H            3.27394588018264       -0.05871149780476       -0.05563188817571
H            3.27615255040864       -1.90898425353453       -1.92632022293488
H            5.20907156947593       -3.23498702084554       -3.26030704034373
H            7.83729694585947       -3.19565779362279       -3.20107186925539
H           10.45932843381710       -3.22316504637969       -3.18655510872753
H           12.34891774859952       -1.88361993352374       -1.80740166267239
H           12.28151656886710        1.88596178077793        1.90376115759854
H           10.34257475046391        3.22491148921559        3.21447686564072
H            7.72222620193477        3.17158012710676        3.16021388413814
H            5.09178146193330        3.16857254926562        3.16707868060367
H            3.20825830555064        1.79954400987337        1.80698492114262
Cu          21.27746575353655        0.02430328086282        0.00785654301155
C           24.70070031765644        0.06654150743207       -0.00130133303195
C           24.05614157933648        1.29398257869026       -0.06358945383633
C           24.71444737166347        2.57020097885021       -0.13200853598899
C           23.74289310585004        3.51521548114757       -0.17919038333633
C           22.48316983752649        2.82446992729877       -0.13839209420450
N           22.70443317240899        1.47979641470429       -0.06999700449628
C           21.23755436379857        3.43535446513248       -0.16078568887586
C           20.00723234085177        2.79677068417955       -0.11528228398533
C           18.73530332205487        3.46141016916408       -0.13428157914103
C           17.78377018705522        2.49549248824772       -0.07407703707510
N           19.81205416329642        1.44407243241909       -0.04499148416965
C           18.46862860834609        1.23578115454953       -0.02015584902026
C           17.83422003187195       -0.01730619122540        0.03561791053339
C           18.49914504262046       -1.25482841549822        0.07505159189073
C           17.84626991349841       -2.53123746452254        0.13023099857694
C           18.82189053566453       -3.47416799230230        0.16487344095294
C           20.07686699893071       -2.77842411642191        0.13185929750644
N           19.84771295224796       -1.43044833229110        0.07584666565867
C           21.32283973111898       -3.38743293590038        0.15786555175900
C           22.55310555048402       -2.74636463184201        0.13114407869887
C           23.82976928890913       -3.40581367777691        0.16241983445673
C           24.77742870630763       -2.43656848576254        0.11927547653763
C           24.08745560174118       -1.17679662731454        0.06033606578143
N           22.74076793916327       -1.39617834885197        0.07034720359930
H           25.78569784112946        0.08029821670567       -0.00272890107454
H           25.78441441365038        2.70778519467262       -0.14193684631441
H           23.85215536390525        4.58701780664815       -0.23567768689596
H           21.22390007478866        4.51904533435640       -0.21711302475099
H           18.60186527492960        4.53048669773979       -0.18736688187500
H           16.71163741907202        2.61207100708836       -0.06822520484787
H           16.77722817197246       -2.67364196013932        0.14108301224497
H           18.71553391624196       -4.54665301661076        0.20985058112756
H           21.33590199565572       -4.47158879408618        0.20497385397730
H           23.96632441688316       -4.47488965703847        0.21126109522381
H           25.85050120886156       -2.54765223928377        0.12538580850848
C           13.85397758601396       -0.02264885364665        0.06016208927100
C           12.63328630669876       -0.00776253832290        0.05731807958540
C           15.20559514356041       -0.02572553435192        0.05871005156787
C           16.42641086109980       -0.03007675469633        0.04932908711555
