171
 energy: -288.784645327717 gnorm: 0.000363474964 xtb: 6.5.1 (b24c23e)
Fe          31.45918415962242       -0.02729578760685        0.00311886119182
C           28.07266328688304       -0.03193536341747        0.00050741926009
C           28.71913715396247       -1.23155714497148       -0.21755805177092
C           28.04027680527497       -2.47275369557252       -0.43934750620842
C           28.99212307147591       -3.43515804778757       -0.47115513065250
C           30.25252370096817       -2.77915034483696       -0.27368977104751
N           30.07338876553821       -1.42826923424230       -0.14926132220295
C           31.45905930745353       -3.44895113714543       -0.09916692727680
C           32.66210398154786       -2.79234345175418        0.11553955458305
C           33.91725045034528       -3.45923220934388        0.29594793772737
C           34.86981585779999       -2.49655686460281        0.32792456764107
N           32.85087687773149       -1.43134309421129        0.06175443688162
C           34.19812326244626       -1.24697838158152        0.15404250809344
C           34.86825644084869       -0.02500966771826        0.00831956965808
C           34.19487148221016        1.19501253443170       -0.14009856921176
C           34.85983101199495        2.44118911332772       -0.35731152035118
C           33.90486321317454        3.40226607335523       -0.33286091294675
C           32.65789567852181        2.73839244273894       -0.09510563960160
C           31.45218891598870        3.39604745953641        0.10571818180870
C           31.45050517419329        4.87693246661649        0.14875795504432
C           30.70625148215716        5.61179984720826       -0.77533224131204
C           30.71004127478840        6.99783611957084       -0.73428147666168
C           31.45018252448937        7.66594081810829        0.23178445389254
C           32.19087546386829        6.94189909777713        1.15618298458531
C           32.19503034034754        5.55590006312735        1.11454745585312
C           30.24536699966154        2.72167205845449        0.26578482674345
C           28.98950605933505        3.36655865399387        0.51969830274717
C           28.03936654190396        2.40231917440760        0.48034924221001
C           28.71725647852925        1.16906346230704        0.21678094209749
N           30.06973501293451        1.37153334842796        0.13058099930148
N           32.84877784212454        1.37853594422934       -0.03051679182552
C           31.45864771153369       -4.93244144038493       -0.14172346551358
C           31.18099280452440       -5.60209661203517       -1.33340540529764
C           31.18856493221049       -6.98836239152924       -1.37479670549283
C           31.46643203146565       -7.71949455894982       -0.22787482120179
C           31.73902757449330       -7.05903599074572        0.96233348968024
C           31.73848022028848       -5.67277368830506        1.00679225174057
H           26.98843153745214       -0.03398611302533        0.00743562005101
H           26.97153842061459       -2.57589568290016       -0.54084716723836
H           28.86417748400235       -4.49787847860389       -0.59866840906230
H           34.04465614239412       -4.52660388664617        0.37376988882986
H           35.93439375966221       -2.61027159195041        0.45049858780554
H           35.91994859596502        2.55301196560381       -0.51536292604140
H           34.02363382020070        4.46462011957252       -0.47048069574346
H           30.13819854600183        5.09173028542388       -1.53859420905103
H           30.13286401200681        7.55897160984646       -1.46081402315638
H           31.44983669979096        8.74956406402526        0.26411532082939
H           32.76838079406432        7.45898938995518        1.91445910892172
H           32.76436137554939        4.99127705495234        1.84449974670545
H           28.86411584059492        4.42096587390655        0.70539221651722
H           26.97365128980355        2.49821296355621        0.61514989235842
H           30.97403536409206       -5.03127246168830       -2.23173029031157
H           30.97759226412437       -7.49977965913453       -2.30742774375390
H           31.47078016587302       -8.80307589930943       -0.26169417579847
H           31.95339038718492       -7.62591165218805        1.86153942910579
H           31.94169097650119       -5.15755655701518        1.93894325678634
Fe          53.15760626238365        0.06502568307397        0.01918641989580
C           56.54393279275524        0.05526788531919        0.03746234946206
C           55.90381477828324        1.26564486719564       -0.13515332801980
C           56.58926283950329        2.51166691103801       -0.30257481027489
C           55.64146853669445        3.47855926662709       -0.30399764934932
C           54.37697623532961        2.82071935697201       -0.14164179966759
N           54.54989220420817        1.46524438587606       -0.06911646179518
C           53.17223643701786        3.48846260612692        0.05296848051232
C           51.96579067370740        2.82896419839542        0.23808184072136
C           50.71288652581432        3.49329296596872        0.44211014750858
C           49.75678243766014        2.53363149460453        0.43758471475723
N           51.77190156859196        1.47172727672630        0.13210051229234
C           50.42391451277139        1.28903712688787        0.21683082931505
C           49.74861954544755        0.07674236123919        0.02249658703885
C           50.41672277987904       -1.13876903383809       -0.17808762215193
C           49.74670635892947       -2.37111473932348       -0.45122384193389
C           50.69791368148629       -3.33598883966158       -0.47193295798774
C           51.94758022545376       -2.68872084001907       -0.20437592747601
C           53.15034207317548       -3.35991664825261       -0.03256708660928
C           53.14621774782781       -4.84114057115109       -0.05868841268715
C           53.89242395958802       -5.53511258071517       -1.01237705487714
C           53.88251549104374       -6.92152271956294       -1.03664989550968
C           53.13411464543774       -7.63105721240953       -0.10718719308063
C           52.39173568913379       -6.94799518219615        0.84658652489125
C           52.39395727905804       -5.56158967536954        0.87042293971380
C           54.35922111658005       -2.69853472655380        0.16273176635556
C           55.61109601686988       -3.35952408089040        0.39391952907978
C           56.56487521789946       -2.39817232651232        0.40641672466560
C           55.89322369799692       -1.15138784462028        0.19588660453623
N           54.54060001855912       -1.34431439927601        0.09149200828180
N           51.76209695848924       -1.33242863024368       -0.07769256970421
C           53.18052466370317        4.97226861095566        0.07102454178916
C           53.47720019696666        5.68929673575369       -1.08811618631660
C           53.48050947681312        7.07610242130948       -1.07112626364870
C           53.19424928450412        7.76062155120455        0.10219549906079
C           52.90186336769742        7.05290866258840        1.26011428004512
C           52.89189601585544        5.66607528069988        1.24619706935283
H           57.62808250676568        0.05252498985148        0.05239148624393
H           57.65913546769629        2.61426555138677       -0.39189128920466
H           55.77492793532493        4.54485101885280       -0.38868136320390
H           50.58905823181748        4.55746156487002        0.55941572856861
H           48.69252007841300        2.64650663659152        0.56365016879782
H           48.68612379191596       -2.47163570528194       -0.61354839505698
H           50.57467741503929       -4.39033885951007       -0.65843765265789
H           54.46685183100898       -4.98236421504126       -1.74738152400459
H           54.46130254888469       -7.45043623823956       -1.78572601929031
H           53.12934437629912       -8.71498601547431       -0.12618633908095
H           51.80785540879913       -7.49756420305113        1.57661022326042
H           51.82350226595116       -5.02945667601907        1.62353607094725
H           55.73152271105226       -4.42194788869041        0.53077345956430
H           57.62930851271399       -2.50431503672100        0.54363949895013
H           53.69058852546173        5.15525884381661       -2.00731691969920
H           53.70721734507892        7.62456772392799       -1.97867623555075
H           53.19937550865567        8.84465592291157        0.11425371263003
H           52.68073165837949        7.58312799951258        2.17979975390591
H           52.67401386257023        5.11380520360358        2.15348631676254
C           36.27125377333418       -0.02078958770864        0.00822117274042
C           37.49075550589573       -0.01254106437530        0.01165277165319
C           47.12608990888258        0.06869875497150        0.02555875921571
C           48.34560761684136        0.07849739050589        0.02189130891914
Fe          42.30824559702043        0.02918575440991        0.03587476274666
C           38.89303063298302       -0.00053756754393        0.01584464281788
C           39.57766390328692       -1.20441793958217       -0.20225564190059
C           38.92150721062076       -2.44740572860394       -0.45724609016421
C           39.88557734643034       -3.39995907276928       -0.47694787743601
C           41.12978759075230       -2.73078872886653       -0.24541838760960
N           40.92627907042192       -1.37839475899254       -0.11329954426426
C           42.33834365710741       -3.38522718422001       -0.04333062642177
C           43.53560776861742       -2.71827340682829        0.18475788595949
C           44.79165127043084       -3.37402049603701        0.38898291235363
C           45.73904025096306       -2.40471765821398        0.40451538437303
N           43.71557184878517       -1.35875640019999        0.10268559590714
C           45.06084488476409       -1.16446769413267        0.19865681032189
C           45.72378966295005        0.05921846343826        0.02815176985607
C           45.04025099938463        1.27176296445342       -0.13903762525115
C           45.69722475322308        2.52478194906607       -0.33650213253049
C           44.73304454769290        3.47727136159028       -0.31845693084293
C           43.48807944290699        2.79849401677909       -0.12170960648431
C           42.27832880616879        3.44361196522145        0.10142856822077
C           42.26449503019621        4.92722188685364        0.13253847119615
C           42.00115792637418        5.60573866419899        1.32232883547640
C           41.98973966586907        6.99240416553621        1.34814421128354
C           42.23438882860631        7.71435735648741        0.18796135139564
C           42.49468657662982        7.04461120260356       -0.99979378707886
C           42.51329051718733        5.65815455221617       -1.02906315490953
C           41.08005463123261        2.76791668686626        0.29492438056146
C           39.82337415082461        3.41482592722684        0.52208245447430
C           38.87595426820062        2.44580758052940        0.49456121709776
C           39.55488023169817        1.21505626118960        0.23957130581673
N           40.90048849033673        1.41300341628182        0.15581714862562
N           43.69122827492248        1.44171031302830       -0.04770771117241
C           42.35276103465289       -4.86856898622744       -0.07572342420450
C           42.09886348509302       -5.54931234116260       -1.26643548287154
C           42.11911180095122       -6.93568771405274       -1.29703898399826
C           42.38685336703115       -7.65565765415329       -0.14075123524301
C           42.63658201332279       -6.98399832438771        1.04818735110095
C           42.62282243025393       -5.59755182711886        1.08236386065287
H           37.85932855935822       -2.56521383353345       -0.59524081496766
H           39.77095447667537       -4.46194292002540       -0.62002312663054
H           44.92512861048687       -4.43844563604224        0.49191501572208
H           46.80325356257324       -2.50934918908646        0.53728712578502
H           46.75999100625839        2.64856411818729       -0.46439247145197
H           44.84764140826480        4.54455310960625       -0.41445180074781
H           41.81982225241926        5.04219610183095        2.23067917126335
H           41.78912026884943        7.51121213497533        2.27893796282666
H           42.22238081801138        8.79816473975945        0.20944431969517
H           42.68376851230590        7.60418557300069       -1.90912573577178
H           42.70629305322351        5.13511360985472       -1.95897627964449
H           39.69011016061648        4.47415987984953        0.66867282410942
H           37.81127349425751        2.54483688128275        0.62805556738170
H           41.90091223443026       -4.98706031436747       -2.17209197907536
H           41.92573696378981       -7.45576185435076       -2.22863078233162
H           42.40079691503094       -8.73935283503499       -0.16619521879447
H           42.84325945531656       -7.54210843279615        1.95457747007526
H           42.80764381216735       -5.07361176158445        2.01342696229968
