274
 energy: -528.755137148975 gnorm: 0.000556644916 xtb: 6.5.1 (b24c23e)
C           36.16205893675789       -0.34613886069861        0.15218361771518
C           36.77788271403360       -1.09097520631112       -0.84531657324562
C           36.13204258559480       -1.87187837522445       -1.84455534832473
C           37.09852059971273       -2.43552495987357       -2.62891239126910
C           38.36714828146025       -2.03075935342023       -2.12370337365733
N           38.12208631091084       -1.21228966265136       -1.05761266034337
C           39.63522698814747       -2.37830249307939       -2.60384451943146
C           39.68231993511451       -3.29490311863168       -3.76992817145259
C           40.29392473906965       -2.87493541113981       -4.95465533810905
C           40.33107721749197       -3.72568221961574       -6.05213539292488
O           40.90486578864903       -3.38025065356697       -7.24743030772992
C           39.76702533059080       -4.99657509600576       -5.97419305162284
O           39.79183300619165       -5.85573916174367       -7.04105994106534
C           39.16016857251577       -5.41893310141764       -4.79027435404885
O           38.61791764323334       -6.65922428208895       -4.72299543257017
C           39.11538431496371       -4.56733671610223       -3.69248015160495
C           40.84353565332554       -1.92863915322627       -2.06508058479362
C           42.14822031296422       -2.38266328776657       -2.51188090362449
C           43.05855529503503       -1.73672334807607       -1.75393570184199
N           40.98415398957782       -1.03652920614791       -1.04589361785155
C           42.30930578565992       -0.89132366139793       -0.84485589618621
C           42.93412256951549       -0.03318132999508        0.08361311845868
C           42.28686044196877        0.80825168864923        1.00851008726370
C           42.91783662971840        1.72201068256069        1.89387806760741
C           41.94339803319345        2.34242594915857        2.62531817896370
C           40.68632495346395        1.81456870237869        2.21913147043949
N           40.94581827611284        0.90036639442172        1.23150041160551
C           39.42031082927743        2.15312217340275        2.70807677617938
C           39.36434124929903        3.15959388941994        3.79639666755029
C           40.01230382456811        2.92742822666794        5.01005051217607
C           39.95140481980219        3.87461832076583        6.02567604288950
O           40.57060052233080        3.65503179668335        7.21103319994749
C           39.24735102534195        5.06348664720126        5.82723670279015
O           39.20793275950878        5.97999467869635        6.84481247758950
C           38.60336680677501        5.29670041430318        4.61472275979739
O           37.93608851784032        6.48715166962060        4.49208931786196
C           38.65600576846990        4.34887252734404        3.60067427273217
C           38.21547064912381        1.61212577197548        2.24429361976923
C           36.91230888704496        1.90158547466345        2.82230349846753
C           36.01189929976321        1.19554767639560        2.10883635438930
C           36.76387490711014        0.47159966890415        1.09950743609159
N           38.08816366842946        0.73685545244812        1.21935348484534
H           35.07879227968773       -0.40846096052748        0.18072553034297
H           35.06318112759107       -1.97342663460895       -1.94482250497628
H           36.95061480674338       -3.07196301510370       -3.48611246350056
H           38.84461282477933       -0.76099606399363       -0.50660343692042
H           40.72188344357813       -1.88198779234240       -5.02711234109956
H           41.27654106893765       -2.48938091161251       -7.20563428185049
H           40.24917207742807       -5.41107569340563       -7.77247847959934
H           38.75281396900740       -7.09810054505860       -5.57914382963974
H           38.65834877083968       -4.91344944244411       -2.77441816810024
H           42.32226878688994       -3.11227383900907       -3.28615976517372
H           44.13376938648593       -1.81209539150164       -1.78387027955601
H           43.98229332299409        1.88326450754992        1.95025432242448
H           42.08020077424764        3.10345093907720        3.37602192087572
H           40.23033936362672        0.37404521498873        0.74077634716116
H           40.54553132096551        2.00158063653158        5.18314664492689
H           40.41054819588779        4.42182356514672        7.78567246897462
H           38.67922696903081        6.73671740399673        6.54531672623823
H           37.51733898194512        6.55867314349021        3.62431526312634
H           38.16449781404253        4.54344136320268        2.65467076016546
H           36.73642268876673        2.54466679316401        3.66969483192124
H           34.94155828169203        1.14417014513225        2.23373268795478
C           98.63801305979878       -0.22674023403761        0.32922236918532
C           98.02641439158354        0.56471997542951        1.29280516239085
C           98.67600881420913        1.32825497040990        2.30296663642855
C           97.71338970455733        1.96457937979576        3.03468011963849
C           96.44317416243575        1.59766931328537        2.50509011060815
N           96.68381325738524        0.76296202257333        1.45065151393864
C           95.17810253463081        2.00248904640053        2.94667233824233
C           95.13751641539896        2.90530542231818        4.12384341513670
C           94.55693506189773        4.17128985623354        4.00561551291978
C           94.52626131952780        5.02230320009160        5.10313349883956
O           93.98220872222700        6.27911818844784        5.06025449092759
C           95.06609983175106        4.61658530473313        6.32104403631191
O           95.04702143504703        5.43573677642800        7.41916688833672
C           95.64214849055864        3.35093316463308        6.44163278599190
O           96.16111616600379        2.96371029350518        7.63233479031218
C           95.68037695544319        2.49964649004342        5.34338613439172
C           93.96781527721991        1.61635967079116        2.36483990472308
C           92.66394813754910        1.96916715609455        2.89734723007378
C           91.75102820037525        1.40737735157096        2.07797984719257
N           93.82377462289386        0.84457184508143        1.25225951523497
C           92.49773468058510        0.71021991321201        1.04895813112889
C           91.87050080092706        0.01608729924358       -0.00614606350976
C           92.51432817054096       -0.69677334962694       -1.03547659718204
C           91.88110244153415       -1.33338049891946       -2.13585265360786
C           92.85264853604174       -1.90695728298492       -2.90810230109093
C           94.11000538500569       -1.65095348531132       -2.29375087008714
N           93.85377816161443       -0.90648791443627       -1.17186340631516
C           95.37364564705443       -2.05694577593232       -2.73504667215812
C           95.42589117425715       -2.87043408888624       -3.97455194024010
C           94.76805972750239       -4.09883489070626       -4.04418470166791
C           94.82471339854698       -4.85534519758000       -5.20906169363965
O           94.19577664215993       -6.05338247273829       -5.28404088151370
C           95.53445236956905       -4.38062080314446       -6.31333323994020
O           95.56927475736620       -5.14613783801968       -7.44901146158249
C           96.18848015064810       -3.15309855085885       -6.24485234516790
O           96.86095613752668       -2.75117806398632       -7.36903317549105
C           96.14012700454037       -2.39838177535009       -5.07971592601472
C           96.57920090481745       -1.75017410355121       -2.09338408402691
C           97.87880601006258       -2.25415527481947       -2.50945809121149
C           98.78088280057712       -1.74515448381025       -1.64607545310050
C           98.03340637278994       -0.93533481406400       -0.70066272508623
N           96.71012391144727       -0.97110879436341       -0.99394542079371
H           99.72014916399890       -0.28515242198168        0.39038240343341
H           99.74476447374005        1.38197588793812        2.43606427957985
H           97.86495188461400        2.63449100413243        3.86533180337114
H           95.95963015173056        0.35302236245473        0.87028679377977
H           94.14816662730212        4.49925591638847        3.05710274338355
H           93.62509571252539        6.46923338676988        4.18283488706037
H           94.61179269642199        6.26527275971310        7.16563145316723
H           96.03513468011016        3.68618139201149        8.26946372090688
H           96.11344588698401        1.51393590085530        5.45450209825374
H           92.49162121273974        2.55026024002226        3.78884628990335
H           90.67540540982669        1.44122612837249        2.14560056667004
H           90.81730814184782       -1.33809365242852       -2.31064475578956
H           92.71380370819230       -2.45390070401196       -3.82624771320571
H           94.57035059656779       -0.56261024975509       -0.54099775250453
H           94.22998846464374       -4.48647578547545       -3.18879506135504
H           94.35294047079663       -6.42609955211972       -6.16731621735784
H           96.10168825432969       -4.67599152679958       -8.11032375628935
H           97.28526061723932       -1.89472368308986       -7.22784505221090
H           96.63949777822231       -1.43749941858105       -5.03848108827199
H           98.05116143953747       -2.92028436553750       -3.33959723367193
H           99.84957516202000       -1.89071661831024       -1.62178727838969
C           44.33940637682105        0.00047560019428        0.08939633108373
C           45.56408725638061        0.01939749152559        0.09422583871580
C           46.90667981244494        0.03138184600074        0.09546726071498
C           48.13759291976815        0.03199315824273        0.08804853286226
C           49.47544420515067        0.03156716166750        0.08302747312116
C           50.70640026992905        0.02460209871287        0.07338394264374
C           52.04878075561757        0.01978451301395        0.06302908070102
C           53.27377413489167        0.01605496288346        0.04996263606480
C           62.93636762935008       -0.00315308530310        0.06247810102490
C           64.16164484762010       -0.00171728248105        0.07712230630416
C           65.50308716825350       -0.00384001865410        0.08662189816794
C           66.73441976536468       -0.00384718506873        0.08961432961773
C           68.07121939231922       -0.00325166035670        0.08589114906616
C           69.30258377255893       -0.00304328177450        0.07610484209392
C           70.64395546656016       -0.00009367306761        0.05947737368472
C           71.86911639415413        0.00587489241041        0.03862008947877
C           81.53115984364408        0.03174465056769       -0.10314541148761
C           82.75609296963444        0.03779908055471       -0.11162872652273
C           84.09860887102661        0.04072906856760       -0.11582027961343
C           85.32954354863112        0.04622613556223       -0.11625748944560
C           86.66748931758357        0.04737328036416       -0.10880585580461
C           87.89831547824988        0.04523676463954       -0.09726803751415
C           89.24090766630292        0.03982729598541       -0.07616043925425
C           90.46535875571716        0.03402141847568       -0.04846572074433
C           54.67835855000374        0.01220490194405        0.03670759480273
C           55.30128873863443       -1.25114113216986        0.02196500397722
C           54.64804069471076       -2.50993789824839        0.05058999667680
C           55.60858999057070       -3.48352464110470        0.00436256415840
C           56.87702713980959       -2.84590036223530       -0.06266141549277
N           56.64054901872688       -1.49711537253932       -0.03843436947029
C           58.13397375902129       -3.46148898369695       -0.12459808414349
C           58.14277554150992       -4.94376620048030       -0.19102731803350
C           58.77518181140759       -5.68922472916304        0.80477685982629
C           58.79222111492484       -7.08045078004350        0.75703765319253
O           59.39723542199189       -7.81669422258265        1.72488125330949
C           58.17475600187242       -7.74573178892497       -0.30728494922107
O           58.17918690915732       -9.10139507380087       -0.38519658042308
C           57.54617636792997       -6.99226610663499       -1.30232747182049
O           56.96524814121646       -7.70499635409320       -2.31933407149725
C           57.51960373684851       -5.60557692750942       -1.25102181100719
C           59.36079403178100       -2.79521381243410       -0.12785196531995
C           60.64464938188760       -3.46117572701993       -0.25585866970162
C           61.58451307203774       -2.49473035696422       -0.20055250890482
N           59.54171727329540       -1.44912112447374       -0.02385998440608
C           60.87315395967897       -1.24082281218995       -0.05303671541553
C           61.53282742752886        0.00145869248666        0.04736020797863
C           60.91002427245575        1.26237830516473        0.12633883711241
C           61.56350399310337        2.51619147573162        0.24430135039733
C           60.60342639727432        3.49055646859131        0.26437368522563
C           59.33493185386890        2.85896091899339        0.15129697044714
N           59.57114517667963        1.51162221607662        0.08198540233841
C           58.07849544411678        3.47662100731165        0.13246736788460
C           58.07163800476565        4.96078724650477        0.17529619836710
C           58.68582896016832        5.69363193646030       -0.84067624791442
C           58.67583739860419        7.08309204345829       -0.80222594815282
O           59.26223332451033        7.80397750872044       -1.78855711596022
C           58.05802806408204        7.74476644369883        0.26026280730767
O           58.06746559290496        9.11453786416174        0.27370269814978
C           57.44959856390737        7.01283846590332        1.27696323063820
O           56.86927255861515        7.73164016214322        2.28848747547294
C           57.45075127939512        5.62411832010582        1.23713253895700
C           56.85138766144622        2.81274155085958        0.07874218594304
C           55.56798725172755        3.48744568117369        0.00308068346307
C           54.62742721400220        2.52021838046010       -0.01602740215513
C           55.33785676074449        1.25806501592222        0.03411658979899
N           56.66981886563906        1.46320088403682        0.07996284835139
H           53.57990587343301       -2.64494690994886        0.10557373581747
H           55.45338805387109       -4.54981397102228        0.02635035092437
H           57.36455735429394       -0.78660903182265       -0.05523134462468
H           59.24527015051428       -5.18434561304189        1.64113279895867
H           59.79309300752509       -7.24931709844337        2.39936691125430
H           57.70514371212412       -9.36101178239801       -1.19164817119122
H           56.56141479851137       -7.11387360662729       -2.96784383926688
H           57.03960403802058       -5.04429915072060       -2.04412571964065
H           60.78671163732160       -4.52174068847852       -0.38570017712461
H           62.65642644947074       -2.59350501687833       -0.26276951533878
H           62.63162222682246        2.64671756441209        0.30895451034260
H           60.75830939764909        4.55296955718180        0.35737593776353
H           58.84743010054076        0.80422699399878        0.01119454843736
H           59.15423442309068        5.19160716750870       -1.67740229959857
H           59.14764902716171        8.74738685446765       -1.58696677929806
H           57.59843274800867        9.40923105160964        1.07056696916857
H           56.46669740266885        7.14393061436995        2.94125658900463
H           56.98744007422101        5.06085231965573        2.03857894644742
H           55.42696282034038        4.55510836437429       -0.04382395216421
H           53.55555490141151        2.62430164536235       -0.07004762554810
C           73.27244111989434        0.00896272422186        0.01333036474984
C           73.90120723530639       -1.25171694846232        0.00351833098862
C           73.25438613865677       -2.51313189331708        0.05313594256103
C           74.21869317299266       -3.48252601766380       -0.00097852710068
C           75.48271560233701       -2.83945588677219       -0.09496000640733
N           75.24018984805714       -1.49151738818231       -0.07641217442993
C           76.74090033352523       -3.44913560145419       -0.17793524487879
C           76.75310683015620       -4.93196670321590       -0.23311937716375
C           77.39907032035190       -5.66798856253614        0.76084324948253
C           77.41210576097461       -7.05972512472291        0.72774322143166
O           78.02768821893166       -7.78709765389730        1.69556945633239
C           76.77831596154057       -7.73476574657973       -0.32076710112177
O           76.77771654231439       -9.09120178163278       -0.38382755958894
C           76.13789406398257       -6.99047930268446       -1.31515830694182
O           75.54106520723012       -7.71260769873624       -2.31613449561163
C           76.11416024429752       -5.60329519186103       -1.27757477843856
C           77.96424422796032       -2.77696298530550       -0.21211419799598
C           79.24783695332509       -3.43820944451466       -0.36449701267085
C           80.18427372372219       -2.46723122443544       -0.33749835782749
N           78.14098984024628       -1.42988136675509       -0.12023493347067
C           79.47104009748452       -1.21548502964715       -0.18023988592419
C           80.12641676098590        0.02939349516415       -0.09088079534394
C           79.49928205427183        1.28633891845854        0.01131846381590
C           80.14876056361744        2.54191819805779        0.13284678857102
C           79.18475907846170        3.51154715512877        0.17916457901248
C           77.91751047676323        2.87560070802789        0.07733995813394
N           78.15852023738053        1.53024721758946       -0.00940979072108
C           76.65794358010056        3.48800618054141        0.07696520695340
C           76.64185918064000        4.97129207292840        0.13588217489902
C           77.25064982361665        5.72167758741882       -0.87055144950493
C           77.22842443625561        7.11043718272847       -0.81537509419624
O           77.80962190187964        7.84834444537778       -1.79218988064609
C           76.60297683558558        7.75412234093776        0.25373610651130
O           76.59968745295488        9.12363400501119        0.28307462102579
C           75.99939083557571        7.00485551962445        1.26060495640575
O           75.40974273419408        7.70635179368767        2.27893501278552
C           76.01364895185131        5.61687740906724        1.20457070863790
C           75.43359495357255        2.81889276661221        0.02820148365961
C           74.14674636673261        3.48787866755988       -0.04128773533729
C           73.21034190910002        2.51652699246345       -0.05453132363921
C           73.92672725362596        1.25778914985711       -0.00504116484401
N           75.25768162423014        1.46833467733364        0.03106654987547
H           72.18796988871362       -2.65260703371356        0.12696242022406
H           74.06891071589398       -4.54930871396453        0.03182425521843
H           75.96020038760174       -0.77764950403514       -0.11153178860000
H           77.88184147290694       -5.15517419700986        1.58506073478204
H           78.43418350787529       -7.21348525537090        2.35835929738726
H           76.29185270659845       -9.35812559138562       -1.18082954573352
H           75.13224125890201       -7.12768787160181       -2.96714689354641
H           75.62299475826212       -5.04922165766133       -2.06890338012953
H           79.39102091392152       -4.49924782159722       -0.48931286291415
H           81.25496228425719       -2.56169933847609       -0.42294543768904
H           81.21714812524827        2.67675254713399        0.18254361850938
H           79.33645658163340        4.57345444478799        0.28251902016865
H           77.43681667188292        0.82040198482334       -0.07619320747249
H           77.72333875581072        5.23408433550305       -1.71337825377628
H           77.68592343593747        8.78816178087058       -1.57950545961882
H           76.12363801555105        9.40468688270894        1.08072463165543
H           75.00962662979776        7.10732235951885        2.92286797553400
H           75.55404033129767        5.04012398311439        1.99853583297585
H           74.00058750668964        4.55475984334352       -0.09009979697137
H           72.13773308490491        2.61566806858201       -0.10314779150246
