138
 energy: -219.412282246530 gnorm: 0.000821557302 xtb: 6.5.1 (b24c23e)
Ni          16.77684598651763        0.15893440203603       -0.18753028733898
C           13.43279612903995        0.36015758951451       -0.71985804103486
C           14.08420508527062        1.48622919468729       -0.26101235537038
C           13.41296190651603        2.71274878888088        0.04455729950682
C           14.34093885485632        3.53993220439409        0.57979995782349
C           15.58688560986382        2.83080856694450        0.56737627846612
N           15.41699363555716        1.56849148996431        0.05474235922411
C           16.78693882975315        3.36449322360175        1.01709459180427
C           17.99377962767877        2.68491282038559        0.92041198787711
C           19.25796184094717        3.27370234945468        1.24393705966766
C           20.20896519600606        2.37328662753886        0.89842197412326
N           18.17007218356317        1.42226265136370        0.40204045102290
C           19.52493643694578        1.22985944574011        0.38407808953870
C           20.18200468899171        0.08482628491252       -0.06995365406343
C           19.50109981341663       -1.06887340151108       -0.46279371322535
C           20.16265743721829       -2.28912588372250       -0.79960061416208
C           19.19423938539964       -3.21407597436806       -1.00297509057672
C           17.94105227688159       -2.55060023984994       -0.80791026561111
C           16.71123241561027       -3.17105915035090       -0.98506774413509
C           16.69486660563719       -4.62637805092374       -1.27343455442303
C           16.23335026862048       -5.10112177537187       -2.49873360113508
C           16.22839155013965       -6.46641669121289       -2.77054407103882
C           15.71508484581654       -6.96709125441431       -4.09357770314217
C           16.68626734206079       -7.35512618366302       -1.80442860843667
C           17.15195312830230       -6.89512907093734       -0.57475994678324
C           17.66084547342490       -7.87143535034927        0.45114043094557
C           17.15667582838624       -5.52991631149866       -0.31619723470562
C           15.51059765761812       -2.47519008786357       -0.95306818388056
C           14.23320847988253       -3.06764099831432       -1.22292475472767
C           13.32413014474289       -2.06487888146372       -1.20485598667887
C           14.03966640392264       -0.86791291890763       -0.88365091576538
N           15.37643166448633       -1.12868903678028       -0.71949373145647
N           18.14180914103942       -1.22787516107623       -0.48689377544730
C           16.79553109643780        4.74290517838823        1.56758710340806
C           16.47925953185250        5.82660784316263        0.75024799900748
C           16.49016486616060        7.12110670521178        1.25875095322895
C           16.17055535838912        8.28859470717362        0.36468997578672
C           16.82131311186221        7.32570291860856        2.59475422429211
C           17.14249167070781        6.25366576308192        3.42208541782317
C           17.48029898916968        6.48500430170563        4.87017381952211
C           17.12897630453912        4.96345840532783        2.90255818280102
H           12.36788551162503        0.43053070061212       -0.90882334791014
H           12.36112257320530        2.88985818917299       -0.11459877891054
H           14.20582042018785        4.54146735436854        0.95462271045597
H           19.39043269733189        4.25952190854866        1.65880239572153
H           21.28023713459547        2.46167755253786        0.97956936333675
H           21.23216359191968       -2.41241307394837       -0.85388905920750
H           19.30677165126308       -4.25013547620633       -1.27764297148604
H           15.89417362227078       -4.39770247586452       -3.25130038133897
H           16.04597100089475       -7.98873359999242       -4.27974814082907
H           14.62290025409510       -6.95401140708170       -4.09773364694413
H           16.06234516733174       -6.32979194468431       -4.90761363653520
H           16.68395758481686       -8.42065302958537       -2.01017595831982
H           17.75747999122531       -7.39719357136468        1.42761024262438
H           16.98595135448259       -8.72386939505034        0.53855779408885
H           18.64186272922019       -8.24770623885240        0.15294302717331
H           17.50905219023351       -5.15785799597374        0.63957780122988
H           14.06689838047751       -4.11677071548067       -1.40588501015251
H           12.25969450045691       -2.11456420228928       -1.37111379894197
H           16.23878108849793        5.65558116289106       -0.29330983868892
H           15.72490164347489        9.10412372405879        0.93462428392521
H           15.48230823056772        7.99348380793173       -0.42763499570936
H           17.08580825036574        8.66034646261665       -0.10166360867501
H           16.83104463833629        8.33390669777948        2.99611658580546
H           16.56881581377702        6.46378066175646        5.47200198929406
H           17.95455501788967        7.45700593875169        5.00762894659643
H           18.15008590163347        5.70909583863916        5.24139893429159
H           17.36739695134841        4.11842704500281        3.53909590144089
Ni          27.62313820217109        0.13808902836149       -0.20624916354253
C           30.96754460475567        0.59104274383190       -0.54627176026454
C           30.31618752709970       -0.16333361071140       -1.49998056450809
C           30.98743212545974       -0.79837726018700       -2.59287942390892
C           30.05942855873170       -1.54272215298861       -3.23834359844028
C           28.81347551721857       -1.33326648204958       -2.56075629797684
N           28.98335030387754       -0.48926774804740       -1.49121678550832
C           27.61336095544890       -1.91355329005415       -2.94828187431436
C           26.40651873353720       -1.63139373130389       -2.32253419823021
C           25.14232478672435       -2.10582553122657       -2.79817662822637
C           24.19131203665779       -1.52331431595714       -2.02955177439068
N           26.23020530295398       -0.78192869663601       -1.25415894322512
C           24.87533845234268       -0.71119760514165       -1.07433597365883
C           24.21825863657388        0.04353824524289       -0.10088216302237
C           24.89916059816978        0.74178392367989        0.89801215795252
C           24.23763273497961        1.40479674552765        1.97638527212802
C           25.20607827288753        1.85758499773724        2.80814807840985
C           26.45925273642523        1.48567386071747        2.22508320960994
C           27.68908214191188        1.82873284679917        2.77156789256075
C           27.70547217799444        2.51085822387293        4.08908233140882
C           28.16674146853602        3.81997912077720        4.20391685458843
C           28.17172771117783        4.46110818766769        5.43958409940457
C           28.68480117119651        5.87131047494014        5.55214196818641
C           27.71410106342834        3.78048691597453        6.56215623644716
C           27.24864847473019        2.47128702771774        6.46269797203455
C           26.74000574346588        1.75763696322813        7.68605515144451
C           27.24391954467207        1.84289649912639        5.22342858891961
C           28.88969865640389        1.60438677974003        2.11203424687003
C           30.16705491647764        2.02874415687393        2.60582579854266
C           31.07613161907869        1.73225127070678        1.64772735776955
C           30.36063994392813        1.09030514901611        0.58760390252069
N           29.02385527848296        1.00530843279395        0.88371776136535
N           26.25845214980545        0.80941039545246        1.04384389250921
C           27.60472533400444       -2.82593443679452       -4.11902508752551
C           27.92111676033305       -2.34256148753684       -5.38738710154291
C           27.91021831942283       -3.19128558392818       -6.48919408893041
C           28.23001261259730       -2.65755935840656       -7.85937732882537
C           27.57891870520254       -4.53140618517601       -6.31386256250168
C           27.25759801910919       -5.02761301528996       -5.05393158722494
C           26.91960294285177       -6.48282566066950       -4.87307623165747
C           27.27114051736124       -4.16950351696701       -3.95931223869623
H           32.03244470018002        0.75299199142065       -0.66648637517288
H           32.03927531543448       -0.69486311929555       -2.80729452398747
H           30.19451460080191       -2.18156925147586       -4.09592680511555
H           25.00986304567605       -2.77857261297685       -3.62966067691284
H           23.12003434877584       -1.62571524214123       -2.09200045592543
H           23.16812776887962        1.49121135388612        2.07973324777044
H           25.09356777078312        2.40973909518378        3.72683865802889
H           28.50570336708546        4.34705695510869        3.31876693422855
H           28.35391165545172        6.33445743229769        6.48160772763421
H           29.77698498800424        5.87184553129689        5.53834182217788
H           28.33737702305434        6.47571551221700        4.71346209369878
H           27.71642472432902        4.27471534819609        7.52829210233082
H           26.64351595256647        0.68773206197590        7.50239890431774
H           27.41496906392890        1.91108027493956        8.52905452684656
H           25.75895920945390        2.14864241919929        7.96454839516870
H           26.89173268108703        0.82125976393855        5.13218881664673
H           30.33335597807902        2.49671261945960        3.56246396303497
H           32.14053841731418        1.90594149624299        1.64908547422046
H           28.16169931238255       -1.29266173102504       -5.51357454021393
H           28.67568409656753       -3.43200533977533       -8.48398210904287
H           28.91831488351453       -1.81445349326417       -7.79639867469208
H           27.31484308675343       -2.31304924136147       -8.34635856151612
H           27.56917453650856       -5.19753080422516       -7.17051037706573
H           27.83099970919609       -7.05507718379702       -4.68510212049041
H           26.44535970996419       -6.88534743395045       -5.76843597890893
H           26.24973561973843       -6.62331615984749       -4.02454972303271
H           27.03263601372293       -4.54566147524977       -2.97051385044207
C           21.59244818273741        0.07231231811403       -0.08087610954031
C           22.80781436943257        0.05750774805316       -0.09194031469460
