122
 energy: -221.047556322154 gnorm: 0.000962384337 xtb: 6.5.1 (b24c23e)
Ni          15.61683603369308        0.02262194809138        0.00692560200982
C           12.22831053505103        0.04002990674634        0.14824006954833
C           12.88541392115305        1.25192235736468        0.19505133497717
C           12.21635633456904        2.51500968113046        0.26500285771473
C           13.17858994855722        3.45678713068226        0.40375140635875
C           14.43472197398640        2.76582373644570        0.43197568331551
N           14.24652915338697        1.41744735666450        0.26074431370511
C           15.65724691924007        3.38460696210441        0.66096131139480
C           15.67831213797319        4.83826369088242        0.94526417238809
C           15.01482269333752        5.35175316329664        2.06193711376158
C           15.03961498249488        6.70785781056754        2.33406787352043
C           15.72749653188465        7.58044338526359        1.48561738788854
C           15.75511171587147        8.97662972419106        1.76222220359319
N           15.77747171658270       10.10506116416530        1.98622506644662
C           16.38958919127357        7.07188793776181        0.36419538461763
C           16.36546203832146        5.71403731069938        0.10147977700836
C           16.86251650162163        2.69450603987167        0.63845310846623
C           18.12940325699242        3.29257314753392        0.93328894397988
C           19.07050991508453        2.34305410982297        0.71448384126144
N           17.02416364576221        1.37373291194210        0.28710698979184
C           18.37652287157497        1.16682652028912        0.29671380660353
C           19.02629746674637        0.00169955923650       -0.11942935630228
C           18.33400965446784       -1.15366276749610       -0.49155958079098
C           18.98036990905422       -2.33602877640420       -0.96442733288030
C           18.01352986078073       -3.27249452156883       -1.11837879632264
C           16.77966175837881       -2.66103403744883       -0.72662510147737
N           16.98337583864762       -1.34386681713053       -0.38355977756244
C           15.56857079827591       -3.33760607282823       -0.65524927177665
C           15.54805193932810       -4.79058624972149       -0.94270754497443
C           14.78407834260178       -5.29307615232149       -1.99858811806636
C           14.76505200695934       -6.64908011506902       -2.27149788048165
C           15.50981057611077       -7.53276743131435       -1.48481179561492
C           15.49152442747578       -8.92898335399440       -1.76203294282276
N           15.47595602855003      -10.05756021149744       -1.98631361412215
C           16.27317383509370       -7.03525706920826       -0.42446420030422
C           16.29187381304284       -5.67747201096288       -0.16083214601506
C           14.37575603202249       -2.70666316769204       -0.32431636908942
C           13.11943908043622       -3.38507746155982       -0.19145448108503
C           12.18203878160309       -2.43421205855837        0.03031927030201
C           12.86735291556299       -1.17804364484507        0.04563209706945
N           14.21638983017373       -1.35703398984510       -0.13497158709474
H           11.14558961691100        0.04511782045205        0.19404080035261
H           11.14702693890584        2.64373311690947        0.21266338699494
H           13.06176991390094        4.52574742122415        0.47793124839485
H           14.49079471257645        4.67657080079186        2.72895730778426
H           14.52836882046019        7.09830251651798        3.20620228476924
H           16.92067785895100        7.74594010608682       -0.29762278078627
H           16.87091783959873        5.32422635300171       -0.77483825766770
H           18.27038015716905        4.30663105446583        1.26978921031618
H           20.14061811075528        2.41769395532688        0.82083844676720
H           20.03875563801273       -2.42267966835171       -1.14995349414931
H           18.11605477184110       -4.28619415580851       -1.46959313383415
H           14.21474002720552       -4.60954547287971       -2.61829024686330
H           14.17460651935911       -7.03095684789437       -3.09610181293370
H           16.84848916377624       -7.71789387265169        0.18988736052635
H           16.87565930665157       -5.29639903609575        0.66943668273786
H           12.98549319728259       -4.45257346276855       -0.25705263765520
H           11.11973646769199       -2.55255186875507        0.17269247617826
Ni          31.61067263140277       -0.02390690776179        0.00477503781745
C           34.99921361189230       -0.03438341015538        0.14335783572476
C           34.34195949639609       -1.24169375909014        0.25763078400529
C           35.01071854452663       -2.49925208253132        0.39623846346140
C           34.04840191541907       -3.43153363675593        0.58838105696826
C           32.79255271102962       -2.73954332016118        0.58040962205765
N           32.98090221038389       -1.40279620730489        0.33444707704896
C           31.57016712794491       -3.34389019695519        0.84574819752130
C           31.54891482596683       -4.77973280932949        1.20943933099389
C           32.21454948053942       -5.23207423746413        2.35103135509567
C           32.18979502366445       -6.57138245167743        2.69646445838042
C           31.49980260050116       -7.48848911292996        1.89807822459120
C           31.47199496572172       -8.86759227906338        2.25018649174041
N           31.45055520798852       -9.98203192837639        2.53702445234596
C           30.83573516876846       -7.04134937291076        0.75199007141085
C           30.85973768658511       -5.69975699737908        0.41592526437016
C           30.36520335794159       -2.65533847778400        0.78681157973494
C           29.09850216894320       -3.23524112314499        1.11666899798126
C           28.15734543859610       -2.29959782313059        0.84468063156783
N           30.20348616016854       -1.35665123272265        0.36104959014485
C           28.85110796924819       -1.14936151340455        0.35958883024885
C           28.20123096110704       -0.00974085746407       -0.12197073555390
C           28.89344312185715        1.12321382468377       -0.55771086606505
C           28.24705243646704        2.27803550061765       -1.09429021787778
C           29.21368665465157        3.20527203726096       -1.29760051533299
C           30.44747800392163        2.61625484009780       -0.87264649447154
N           30.24392756364152        1.31945390844302       -0.45927186870098
C           31.65851583484462        3.29581828312880       -0.83758712167440
C           31.67870560783773        4.73166277581717       -1.20092407705289
C           32.44401626103623        5.17881153812252       -2.28051888844269
C           32.46447540304398        6.51903438546180       -2.62240757724050
C           31.71957077357407        7.44247484896130       -1.88285570697684
C           31.74052363463747        8.82307951208605       -2.22950586206878
N           31.75600419341860        9.93960441002180       -2.50753269015849
C           30.95372822327183        7.00034464152801       -0.80002689856191
C           30.93374980651181        5.65784273753355       -0.46718989159246
C           32.85153625251467        2.68335107649084       -0.47416549826021
C           34.10810477147280        3.36765656677070       -0.37909246754477
C           35.04566554622923        2.42982705741718       -0.10802193705697
C           34.36019253193369        1.17644693992697       -0.02447470397984
N           33.01097364541936        1.34575474221178       -0.21292264764986
H           36.08199587094690       -0.03718838666096        0.18790308723521
H           36.07992361121373       -2.63115966294835        0.34956737577313
H           34.16506048878168       -4.49479868171068        0.72139016968143
H           32.74015799626022       -4.52185850842551        2.97930410461526
H           32.70283288089010       -6.91424702280390        3.58734336303406
H           30.30304848408768       -7.75005685229039        0.12878793394405
H           30.35237431614898       -5.35787273733599       -0.47909452047710
H           28.95781289464587       -4.22828630347643        1.51099515288623
H           27.08730310073212       -2.36770077279065        0.95599841276409
H           27.18881856788324        2.35415535100113       -1.28521349918429
H           29.11098902287827        4.19855753039485       -1.70292328045105
H           33.01336659032327        4.46394620543763       -2.86378585686102
H           33.05635180998973        6.85794880373957       -3.46458043292237
H           30.37774181081024        7.71380507173724       -0.22242807993285
H           30.34816737101237        5.32021437814677        0.38044418483414
H           34.24217907594096        4.43008233578810       -0.50178690231447
H           36.10815600127355        2.55539719192225        0.02654254271124
C           24.22760924207759       -0.00491181437916       -0.20116470198238
C           23.00004767745088       -0.00745700846269       -0.20029765314948
C           21.65440343811238       -0.00668189664567       -0.18459126495249
C           20.43150323130073       -0.00694772874144       -0.16028024160610
C           25.57324054328096       -0.00418911551424       -0.18698513071154
C           26.79600146836574       -0.00256766986193       -0.16185600974572
