390
 energy: -687.917801594799 gnorm: 0.000579015040 xtb: 6.5.1 (b24c23e)
C           68.64286208727682       -0.02361492723254       -0.08678542228979
C           69.24781316620573        0.98071437412367       -0.83379113354934
C           68.60066161051316        1.98593401689544       -1.60386531557616
C           69.56878666332578        2.76385083390734       -2.17759018477633
C           70.83270244787498        2.25605060677170       -1.77344230028801
N           70.59366097758536        1.18499363824184       -0.96701459017010
C           72.10051919048597        2.75229954855182       -2.12620456413603
C           72.12295784636899        3.87724219743926       -2.98028448915350
C           72.13792626488855        4.84191417676008       -3.71633189433525
C           72.16372792542758        5.96457596166167       -4.57484477099804
C           70.98210071165239        6.52359945085676       -5.07575469629804
C           71.06276341624782        7.62151091177260       -5.91363629561448
N           72.21607924470509        8.18031487065424       -6.27167021355621
C           73.34379912159203        7.65507685548410       -5.79930166105995
C           73.37260931283510        6.55842450216583       -4.95646192378161
C           73.32932360535847        2.22191237418558       -1.70105969741662
C           74.61172890505355        2.77376209447618       -2.09173651794500
C           75.55136864066122        2.00824438906858       -1.49795394775817
N           73.50167141485774        1.14942599101036       -0.89028354800564
C           74.83697799744422        0.99305927823914       -0.74822232755079
C           75.48684952202075        0.00007946057222        0.00905995463683
C           74.85636441585707       -1.01282951394949        0.75806392543467
C           75.49717920455647       -2.02234286930382        1.52214815853833
C           74.52480058117573       -2.80423838446322        2.08547299133874
C           73.26535810531989       -2.29142106304435        1.67989630365598
N           73.51231263105025       -1.21126109357949        0.88134455094105
C           71.99878583167013       -2.79247661164619        2.02802218131404
C           71.97455020514268       -3.92893269164985        2.86502901297094
C           71.95447064122681       -4.90824181235262        3.58179876202309
C           71.92515394979891       -6.05066731048792        4.41322355006396
C           73.10612951690983       -6.64551966641240        4.87301045153990
C           73.02192621250798       -7.76375744233179        5.68313825301110
N           71.86581093994150       -8.30946751760396        6.05229872869489
C           70.73867237875007       -7.74970397069584        5.61979248624555
C           70.71325802798370       -6.63078315111604        4.80673544242469
C           70.76876881394449       -2.25405445101391        1.60891028092740
C           69.47972436311063       -2.80017393478841        1.99638636317238
C           68.54648355972138       -2.02518172060390        1.40713632629887
C           69.26868288138840       -1.00955323796391        0.66087682534031
N           70.60948089839110       -1.18141370779974        0.80864241508171
H           67.55766707080485       -0.02989932795635       -0.09808638472992
H           67.53168308563586        2.09003233568674       -1.69936509335470
H           69.43031899733545        3.61550696414222       -2.82421014702914
H           71.31263365244652        0.61935591074724       -0.52846158834186
H           70.02115017271646        6.09994680599727       -4.80972526283227
H           70.16196532514509        8.07491567042086       -6.31726483047544
H           74.26663629840941        8.13566790271536       -6.11120940784445
H           74.31406066513442        6.16267340602399       -4.59509633814184
H           74.74528826169139        3.63023920420581       -2.73308496905405
H           76.62468725968651        2.09914889340066       -1.54552833622099
H           76.56520734083534       -2.12954996041960        1.62206990254074
H           74.66000581368543       -3.66107004556525        2.72568169570958
H           72.79627307088167       -0.64173182225135        0.44261730179484
H           74.06928456891981       -6.23384167233403        4.59642047844669
H           73.92212822375653       -8.24552389413553        6.05388534144434
H           69.81348925558750       -8.22031734103815        5.93988433523724
H           69.77219208331998       -6.20724516924559        4.47723661241496
H           69.34102356108363       -3.65925868605629        2.63345157515131
H           67.47184789352143       -2.10663242204749        1.45250514442100
C          168.68884213925304       -0.14451153220864        0.03058585115530
C          168.07544177358722       -0.98562614636850        0.95198145762744
C          168.71378923561227       -1.86080973482565        1.87328596998405
C          167.73910204882898       -2.50203787315076        2.58774696507992
C          166.47987883877164       -2.03562380154146        2.12363968301352
N          166.72809580033817       -1.12630170991028        1.14073733628409
C          165.20805144387853       -2.42332664356633        2.58218403838958
C          165.17563366033863       -3.38883002351673        3.61281894531001
C          165.15124295618872       -4.22250169128268        4.49428206062299
C          165.11490320927061       -5.19595415780484        5.51855944307936
C          166.29054935951851       -5.76543896751929        6.02173323532271
C          166.19959930210268       -6.71629124485787        7.02251587535554
N          165.04172789955308       -7.12174798926196        7.53779738044024
C          163.91964702020695       -6.58466299213849        7.06531773529420
C          163.90117297446349       -5.62794755601213        6.06621283907197
C          163.98425707781485       -1.93271217892005        2.09904303177702
C          162.69764240265908       -2.36051842998963        2.61204883955074
C          161.76469547826278       -1.68464036786393        1.90898690792260
N          163.82092145200755       -1.01922623693178        1.11087794017507
C          162.48736001488268       -0.84860719176376        0.96988101164366
C          161.84546979754271        0.00135777608856        0.04898458565653
C          162.48418905939408        0.83530822384514       -0.88965329407202
C          161.85190739368784        1.69494829292845       -1.82490575627829
C          162.83081603101527        2.32693366502572       -2.54369168384065
C          164.08583235066052        1.86893103167706       -2.06532234188858
N          163.82976096451077        0.97084956618297       -1.06866621713401
C          165.35660392597768        2.25992476001469       -2.52222232923157
C          165.39079584181232        3.20711650411590       -3.56833541580043
C          165.42017288113917        4.01997091794052       -4.46924544784473
C          165.46041566022674        4.96393216513509       -5.52023317416150
C          164.28539100332284        5.48853818258347       -6.07162695012538
C          164.38048218174850        6.40959508908923       -7.09948079203084
N          165.54175575546992        6.82760445879462       -7.59686098831955
C          166.66330443641547        6.33394422896342       -7.07794770522615
C          166.67781084500569        5.40936604874369       -6.04905166434998
C          166.58197754257054        1.78337456858417       -2.02226669633186
C          167.87552214695430        2.21712928829898       -2.52090922572783
C          168.80212650451108        1.54640888687426       -1.80655393787063
C          168.07143195139406        0.70488983730849       -0.87496016773677
N          166.73220431469477        0.87768357383413       -1.03560045839073
H          169.77393115735279       -0.16370826940797        0.02524594277867
H          169.78165532123836       -1.97671715485484        1.96759896105080
H          167.87013143405889       -3.23380473092723        3.36874423944225
H          166.01413656626784       -0.62551149831310        0.62239728421610
H          167.25487946324171       -5.46433178671039        5.63048415805624
H          167.09557257326898       -7.17510440833206        7.43074504856059
H          162.99285303176390       -6.93803318435574        7.50810987508976
H          162.96401554627400       -5.21709657549994        5.71057511700477
H          162.55689766981374       -3.08026292948594        3.40253557547072
H          160.69095721974119       -1.72888595387922        1.99634302612231
H          160.78485142933906        1.80912562595682       -1.92754999513451
H          162.70287433033101        3.04713642923166       -3.33568366405202
H          164.54093169487621        0.47653210067100       -0.54003961306030
H          163.31834954460899        5.17565000409573       -5.69669351420646
H          163.48508900398659        6.83260571083069       -7.54585152156548
H          167.59294759098327        6.69645468858378       -7.50719097410168
H          167.61462927356200        5.03326668605276       -5.65600831258485
H          168.02152571798538        2.93754442541830       -3.31008650649621
H          169.87734074140474        1.59343264730673       -1.87893621542849
C           76.89244424356352        0.00454940999571        0.02512235563532
C           78.11682540845786        0.00283567984455        0.03853927484135
C           79.45957713442976       -0.00094796043274        0.04925541796384
C           80.69015807711429       -0.00587345922052        0.05522796601706
C           82.02813976358941       -0.01288350831620        0.05740865127709
C           83.25876360186636       -0.02188079148814        0.06063341184051
C           84.60129948707502       -0.03432974861641        0.06211916077241
C           85.82586738530330       -0.04740146394618        0.06369499545417
C           95.54708083899800       -0.05457073890560        0.02898399944909
C           96.77209940500977       -0.04222673794997        0.02376068669763
C           98.11371526893019       -0.03143196846839        0.01624498380428
C           99.34491155686457       -0.02288967535764        0.01059066649082
C          100.68187385172106       -0.01732586744772        0.00547916109265
C          101.91306651060681       -0.01599383840336        0.00372586793771
C          103.25470634643503       -0.01856438072724        0.00171353153645
C          104.47980981298117       -0.02300581177658        0.00364757914663
C          114.20042291819722       -0.03784489187580        0.01291662787018
C          115.42551878856897       -0.02784651174875        0.01274866203895
C          116.76712387612083       -0.01980974742755        0.00948532042432
C          117.99834236242330       -0.01427341791738        0.00754911553983
C          119.33527426930026       -0.01054495208751        0.00511918332261
C          120.56649977376046       -0.00860032831911        0.00450196594077
C          121.90812863322634       -0.01185311029871        0.00283176568899
C          123.13325074736790       -0.01830206403890        0.00573809129996
C          132.85353257366756       -0.03714015526073        0.00865694266194
C          134.07858149645509       -0.02488091316284        0.00839402336656
C          135.42018986505249       -0.01594779475027        0.00831025180490
C          136.65141211551148       -0.01242939815180        0.00632194604606
C          137.98836553156781       -0.00980004700733        0.00774476329305
C          139.21956257832107       -0.00817653755526        0.01226926532437
C          140.56121622089901       -0.01144552673833        0.01485549179257
C          141.78628320676259       -0.01730683967859        0.02216150620517
C          151.50706128983126       -0.01189592941153        0.06909275567103
C          152.73165741340117        0.00622491684040        0.07048047586632
C          154.07397490197982        0.02219966632842        0.06931425154757
C          155.30466174630561        0.03444141794552        0.06590111720824
C          156.64243617596765        0.04206820380449        0.06265140643781
C          157.87311175639016        0.04327668093344        0.05825266901439
C          159.21570804898295        0.03669461871540        0.05356462560113
C          160.44019813480435        0.02436224605006        0.05193197025654
C           87.23057895533515       -0.06202450099423        0.06065011130807
C           87.85478324011177       -0.30962965484589       -1.17832973764028
C           87.21160917422162       -0.55478561861246       -2.41781570473566
C           88.18349248153451       -0.75705036639983       -3.36164902718043
C           89.44302602028378       -0.63786433150264       -2.72091346892132
N           89.19878251894370       -0.36723701108418       -1.40541690466443
C           90.70855404528274       -0.77020818416081       -3.32216653739825
C           90.71686077739751       -1.06696157153748       -4.70351500123582
C           90.72137162168269       -1.32973209990609       -5.88825342271644
C           90.73371851146720       -1.63935015836740       -7.26741237866696
C           91.93590382467522       -1.85681967541461       -7.95089620432448
C           91.89415511894964       -2.16002333303764       -9.30004336518231
N           90.75997732335507       -2.25581246806885       -9.98934926509011
C           89.61304390405530       -2.04960994852318       -9.34707039594706
C           89.54525906476415       -1.74202124542198       -7.99989599503738
C           91.94609739560461       -0.63317434390142       -2.67488146275205
C           93.21824440033589       -0.76418986482016       -3.35787149187789
C           94.17276258396456       -0.56264071211723       -2.42520037313024
N           92.13898554827318       -0.36165633757329       -1.36080452838165
C           93.47740315623712       -0.31389063931304       -1.17781011767251
C           94.14345409831607       -0.06787588037051        0.03803583786159
C           93.51884829496522        0.16214332973782        1.28059909678411
C           94.16190800509889        0.39492368950843        2.52248384469436
C           93.18990916544379        0.56011079413312        3.47339680945371
C           91.93037439345511        0.43436744998627        2.83385537113908
N           92.17500947674972        0.19488605822775        1.51216200317122
C           90.66502590478329        0.53980306362478        3.44017730328863
C           90.65615677196378        0.78340600985251        4.83179726348330
C           90.65098879975926        0.98702390997483        6.02813943765061
C           90.63685843730948        1.22174788441767        7.42195091693365
C           89.43216268755279        1.33931156601283        8.12521352595938
C           89.47214143909524        1.56695530322351        9.48920117675716
N           90.60691789548503        1.68124594262327       10.17468758144026
C           91.75628196345977        1.57092330543694        9.51341500891591
C           91.82594151945834        1.34345579274913        8.15052583293177
C           89.42718723223028        0.42638646309005        2.78804065846173
C           88.15501056960997        0.56096879941148        3.47037350800380
C           87.20049566007968        0.39795058021978        2.53022334826707
C           87.89577127191681        0.16178893331878        1.28040408045668
N           89.23474006200129        0.18599967121764        1.46838984203314
H           86.14332339187084       -0.57403217885225       -2.56087548451030
H           88.04640888365418       -0.96930353140101       -4.40968545071036
H           89.91283101514402       -0.23122000930122       -0.69759867436229
H           92.88208037241313       -1.78887137365589       -7.42776674520694
H           92.81140402828744       -2.33463389595282       -9.85503697246190
H           88.70680896433262       -2.13533537824109       -9.93974488461437
H           88.58917900360423       -1.58218618473254       -7.51615535976323
H           93.33559999254075       -0.97909386878514       -4.40796419934266
H           95.24453308093180       -0.57714324436208       -2.54183124499198
H           95.23019196797537        0.42869011084613        2.66282151427021
H           93.32684362867302        0.75298302901407        4.52519054959728
H           91.46108776495902        0.05917886893404        0.80416349642470
H           88.48540636544192        1.25250436716241        7.60594757808576
H           88.55289212198032        1.66211848382958       10.05995301499489
H           92.66294433737558        1.66925286382462       10.10346811454806
H           92.78393870108769        1.25997774580523        7.65161864060326
H           88.03759420957674        0.75536914741218        4.52444594025525
H           86.12871611541354        0.42814936763246        2.64371269231497
C          105.88343824048079       -0.03319219021458        0.00544288403218
C          106.51355433741107       -0.29300775830160       -1.22855445604384
C          105.87582025703205       -0.55014452890725       -2.46825371725907
C          106.85194325500186       -0.75707529772199       -3.40685530419001
C          108.10855222425363       -0.62918250369982       -2.76233232476338
N          107.85837056183080       -0.34904458410543       -1.44975831895317
C          109.37682926116092       -0.76172120300576       -3.35772187873083
C          109.39170863138393       -1.06521446255933       -4.73754765729720
C          109.40211020028951       -1.33248734471080       -5.92125139254138
C          109.42267614812945       -1.64735449633968       -7.29914388839269
C          110.62852529375687       -1.87416043695272       -7.97305063284949
C          110.59479201079409       -2.18257118323581       -9.32125789551604
N          109.46510558009089       -2.27479748607146      -10.01834531125336
C          108.31472832107384       -2.05976009774132       -9.38519590243116
C          108.23896305038441       -1.74652469943173       -8.03974945490558
C          110.61150290111313       -0.61973275549968       -2.70595719847459
C          111.88664421300425       -0.75190806476430       -3.38301539579114
C          112.83700132607848       -0.54754972706605       -2.44668704080026
N          110.79849954997339       -0.34404329200867       -1.39187746408010
C          112.13612936847480       -0.29568991171758       -1.20305872511145
C          112.79682050076154       -0.04807476365048        0.01540374711468
C          112.16672421789649        0.18612820999755        1.25453399185979
C          112.80436760511338        0.41916637864645        2.49904935434063
C          111.82813292816029        0.59099032954886        3.44458751119046
C          110.57153461919314        0.46922717220159        2.79882873385474
N          110.82186839206862        0.22499679706197        1.47910642479586
C          109.30322900812675        0.58364829849916        3.39781793430111
C          109.28798657933707        0.83050540947942        4.78887228245951
C          109.27685323958835        1.03476244922258        5.98506041287544
C          109.25498043474806        1.26761514481666        7.37912389863887
C          108.04635880462685        1.39232328199400        8.07436261236146
C          108.07859179325253        1.61645706930969        9.43914803238135
N          109.20941196994849        1.72091625655578       10.13266374490707
C          110.36247922809009        1.60408775125565        9.47900554785610
C          110.43986676638009        1.37937775941892        8.11606683681940
C          108.06860698830167        0.47457189736410        2.73951649652262
C          106.79354680822287        0.62042124267574        3.41389729023380
C          105.84324264059998        0.45389043662973        2.47004107606559
C          106.54404554518275        0.20427677115245        1.22594272742706
N          107.88166155962801        0.22538952832377        1.42018947844614
H          104.80814425106115       -0.57342590254415       -2.61520242776547
H          106.71941016356291       -0.97810810452995       -4.45365707397834
H          108.56950874746609       -0.20577231688572       -0.74043839154273
H          111.57129595728804       -1.80941432583602       -7.44341466309073
H          111.51502308440328       -2.36446550485225       -9.86891824919578
H          107.41234120884106       -2.14277352602104       -9.98408222213138
H          107.28033758883319       -1.57956838835241       -7.56352106632818
H          112.00874717591525       -0.96951206880445       -4.43200873817003
H          113.90926795583852       -0.56193378421814       -2.55863785862245
H          113.87205308163276        0.44863882101786        2.64481812297317
H          111.96055984066327        0.78602362118451        4.49655986868923
H          110.11078204737605        0.09004522319327        0.76810565452431
H          107.10257186246739        1.31347864165205        7.54845960068174
H          107.15614322418611        1.71675039588015       10.00382969388845
H          111.26573344128815        1.69448361831888       10.07551119824034
H          111.40064448139094        1.29024007861765        7.62353511259028
H          106.67143592129526        0.82397954713406        4.46570708523710
H          104.77105017890096        0.48980993236461        2.57776383191549
C          124.53684678009930       -0.03006173682446        0.00675460693266
C          125.16597082091235       -0.29185562970970       -1.22735051218106
C          124.52720950650291       -0.55052948294747       -2.46622666698249
C          125.50254398635083       -0.75883102919331       -3.40532907811942
C          126.75970842722208       -0.63002460551626       -2.76204240300615
N          126.51058960326880       -0.34827370210967       -1.44957676446623
C          128.02743559146850       -0.76255908201589       -3.35851195415436
C          128.04121006556113       -1.06721679829984       -4.73808824516947
C          128.05069064774449       -1.33567790870832       -5.92153213201643
C          128.07053609671419       -1.65112686687994       -7.29930272934518
C          129.27642712874177       -1.87314440167491       -7.97474845421702
C          129.24220295059195       -2.18209693259662       -9.32281249594301
N          128.11197182070822       -2.27930461656198      -10.01834838852790
C          126.96155047843241       -2.06898684714305       -9.38370501384978
C          126.88625571654235       -1.75560735225544       -8.03825778863378
C          129.26268881288382       -0.61927484485010       -2.70802980584311
C          130.53730687208252       -0.75110728173911       -3.38611505188893
C          131.48836862975747       -0.54589071136363       -2.45066870743620
N          129.45063280856201       -0.34278607221203       -1.39429370174363
C          130.78843734956098       -0.29389490623636       -1.20656588606635
C          131.44991644699618       -0.04613220788645        0.01138059349189
C          130.82073368766333        0.18838311081206        1.25093007410205
C          131.45945129197145        0.42101873471908        2.49495611588486
C          130.48403775082559        0.59307939012576        3.44130287695506
C          129.22691214042777        0.47194571529894        2.79650111214636
N          129.47606647095319        0.22785920471742        1.47655795121597
C          127.95909162896015        0.58674989716689        3.39653563044008
C          127.94518160111454        0.83245715402885        4.78780111884558
C          127.93554404932068        1.03462239879221        5.98435355023010
C          127.91561204372158        1.26600723735925        7.37868822677195
C          126.70791518245085        1.38735776346460        8.07613213348671
C          126.74199144018596        1.60997762876977        9.44111637300356
N          127.87377229027712        1.71599835193614       10.13283055725200
C          129.02596393097176        1.60216737927586        9.47710436978883
C          129.10151244129378        1.37914048106315        8.11378199986694
C          126.72401237874108        0.47857629160963        2.73906334647451
C          125.44945322473936        0.62582205142925        3.41411037589829
C          124.49847770890673        0.45967847750834        2.47087091543017
C          125.19837891738693        0.20847363952373        1.22656110916925
N          126.53608104025234        0.22884055825432        1.41994562870872
H          123.45941571465805       -0.57397262016484       -2.61228720106276
H          125.36915682355985       -0.98128834233352       -4.45172339938516
H          127.22231410602586       -0.20416011861437       -0.74101576830272
H          130.21960803585966       -1.80423659576104       -7.44637106893611
H          130.16246177158447       -2.36021184465700       -9.87166727859118
H          126.05871827459660       -2.15603281993350       -9.98135012437272
H          125.92755424965952       -1.59259326254195       -7.56081297051696
H          130.65863408934570       -0.96908059295996       -4.43512260199013
H          132.56055111816082       -0.55973270959792       -2.56350642600962
H          132.52725874166939        0.45005532767809        2.63989080172542
H          130.61739294736518        0.78791336993765        4.49319225798192
H          128.76435813629033        0.09320708071713        0.76612779439501
H          125.76341880099486        1.30709000153718        7.55172221738225
H          125.82029556484608        1.70773373222196       10.00746985222234
H          129.93003792818672        1.69370994535625       10.07219241277011
H          130.06164581991465        1.29238308128383        7.61956828370274
H          125.32814974419772        0.83013029763886        4.46586982590580
H          123.42637107956955        0.49658736432180        2.57916414747344
C          143.18990633282252       -0.02816415171150        0.02987917979437
C          143.82517449823638       -0.28392988677675       -1.20219154752671
C          143.19286589410328       -0.53891134593085       -2.44521506800151
C          144.17306232757875       -0.74275185194818       -3.38010625885007
C          145.42697846939976       -0.61457399795099       -2.73014287459393
N          145.17093886982934       -0.33778541135495       -1.41793744094654
C          146.69759912192868       -0.74267731067548       -3.32087623557814
C          146.71888355027443       -1.04436648005853       -4.70095041268074
C          146.73553559616983       -1.31116601905506       -5.88469564066365
C          146.76337666846592       -1.62498801557421       -7.26266060555397
C          147.97321881230835       -1.84618566108629       -7.93128966610258
C          147.94691376445220       -2.15357149520205       -9.27987492380575
N          146.82078223326531       -2.24996772318475       -9.98216121116942
C          145.66665474103414       -2.04047463785422       -9.35399933671597
C          145.58344947468652       -1.72871438257206       -8.00865045716560
C          147.92961621183878       -0.59725472741810       -2.66418180944601
C          149.20762803655813       -0.72062471954664       -3.33757486575500
C          150.15387456656129       -0.51440959240104       -2.39753527012125
N          148.11059998737838       -0.32552902784220       -1.34889697371643
C          149.44777661421253       -0.27127399488076       -1.15514604208913
C          150.10261425176535       -0.02966370313286        0.06702733445145
C          149.46768842109230        0.19107579746975        1.30568808618893
C          150.10004991596131        0.41645450908468        2.55440486848588
C          149.11985789692460        0.57997040975687        3.49721139796427
C          147.86593943405180        0.46082867120378        2.84559696050618
N          148.12172416167365        0.22559967300948        1.52548369491317
C          146.59506934976517        0.57159141080525        3.43992805901193
C          146.57398978205401        0.81113001548137        4.83218068447779
C          146.55772645869129        1.00924480625224        6.02933343184579
C          146.53046311523116        1.23564126104705        7.42434387700485
C          145.31920229716280        1.36064962141921        8.11492424288639
C          145.34615556836314        1.57858912995028        9.48081483017162
N          146.47425128808675        1.67670786162401       10.17969108577593
C          147.62979850026881        1.55947557450398        9.53048388076329
C          147.71245617554476        1.34068722634318        8.16689839134828
C          145.36339572309063        0.46660918021959        2.77563680487098
C          144.08542071111731        0.60990057343247        3.44514771444155
C          143.13920093531260        0.44858201709582        2.49633642357670
C          143.84537342432606        0.20440981810907        1.25412085885446
N          145.18205332331394        0.22401477396250        1.45427176829723
H          142.12583699784028       -0.56307360932540       -2.59666216282522
H          144.04524341563641       -0.96156592892739       -4.42796269325379
H          145.87868384312625       -0.19529304147181       -0.70508081423129
H          148.91326253538671       -1.77791145955724       -7.39727142324225
H          148.87038041964823       -2.33105446933081       -9.82351586536622
H          144.76734067511524       -2.12685535124151       -9.95702336980717
H          144.62196209272142       -1.56635739871910       -7.53661864088400
H          149.33425642143959       -0.93386459521372       -4.38692476493190
H          151.22655446690433       -0.52304371149735       -2.50601629613772
H          151.16711473702387        0.44685003857804        2.70450114939070
H          149.24775253631194        0.76808060178026        4.55100594925724
H          147.41385777617430        0.09472309921484        0.81052139509952
H          144.37749880721822        1.28687997665989        7.58456659890883
H          144.42155103322517        1.67901243826018       10.04194333663366
H          148.53072048435922        1.64457945171998       10.13128372198336
H          148.67509701982542        1.25101057888317        7.67811375501409
H          143.95885650560592        0.80841859186510        4.49739680504515
H          142.06655625842052        0.48455222501562        2.59949630288378
