304
 energy: -522.222326981709 gnorm: 0.000366120117 xtb: 6.5.1 (b24c23e)
C           61.00841772904948        0.04297258773036       -0.01341790558640
C           61.60994287211137       -1.19663170602390       -0.18917512551414
C           60.97312492500712       -2.45626841438630       -0.38223063228549
C           61.94829735743254       -3.40405579161493       -0.51650425513339
C           63.21141517083788       -2.75383454521550       -0.40892476792526
N           62.95595766477253       -1.42757915454452       -0.21161655735770
C           64.46949823718894       -3.33845417921964       -0.49136515619530
C           65.70203351564960       -2.70926941560369       -0.38830465981750
C           66.96498301540188       -3.41636126134499       -0.50301246667566
C           67.93437207275684       -2.49006848447921       -0.35499762106178
N           65.92432686397444       -1.38386503359115       -0.17480992370752
C           67.26163259287537       -1.22071478450741       -0.14693213016333
C           67.94164152803381       -0.00003139490060        0.04247464676603
C           67.31338217038532        1.24662078380792        0.22444099865036
C           67.94116745678539        2.50351335196840        0.43628512133696
C           66.96160631085711        3.44935144530587        0.56384990657138
C           65.70427049826556        2.79599422460381        0.43772949993523
N           65.96888428710395        1.46833189253434        0.23563900466434
C           64.44773737478397        3.38516442798564        0.50779761172428
C           63.21416609397172        2.75601007908540        0.39938810910431
C           61.94359724977982        3.45904594108544        0.48939029463276
C           60.98079576791139        2.52640114245666        0.34540731649842
C           61.66416146914769        1.25508819047276        0.16718342060869
N           63.00612184087575        1.43264160950537        0.20436538544467
H           59.92372859422537        0.05739037702481       -0.02042714949691
H           59.90506770937488       -2.60241368455674       -0.41302685826789
H           61.81845957601506       -4.46269998079746       -0.67643991685044
H           63.66337169624328       -0.70926569562710       -0.09880676590234
H           64.48059107322327       -4.41086762411271       -0.65831774663959
H           67.06318796512709       -4.47652659067483       -0.67638655248702
H           69.00353868867877       -2.62424329763981       -0.38530962514940
H           69.00711079404391        2.65428751319470        0.48926769480039
H           67.08758095541630        4.50690277871819        0.73285750811472
H           65.26487810607777        0.74782902171232        0.11340737340538
H           64.44010480624291        4.45848358295461        0.66855265692560
H           61.83916867626556        4.52189996945553        0.64274367566250
H           59.90929559778482        2.65209662924773        0.35419374081253
C          145.23729829099068       -0.02729258113956        0.00260159408083
C          144.63389113333179        1.20032271363151       -0.23875038417507
C          145.26805665205379        2.45286626713717       -0.48049517939108
C          144.29081299651065        3.38882597468879       -0.67096774533105
C          143.02895747907436        2.73806586285168       -0.55148642156725
N          143.28730209956109        1.42356383558139       -0.28999276179336
C          141.77007947083754        3.31260779437510       -0.68002261197065
C          140.53781751721303        2.68464561866959       -0.56588537346356
C          139.27480629277863        3.38134887644398       -0.73269558741366
C          138.30547629671506        2.46100581726126       -0.55052669346654
N          140.31565892368275        1.37084691523760       -0.29032400299500
C          138.97837203078208        1.20570645491113       -0.27017706655604
C          138.29935941383698       -0.00519043137003       -0.02348784522047
C          138.92942261064212       -1.23946964660475        0.22435330415655
C          138.30377999038188       -2.48644420075776        0.49336439602201
C          139.28540488617878       -3.42016320463131        0.68038605700926
C          140.54178459923003       -2.76893780958458        0.53455098807009
N          140.27455743100930       -1.45490878377559        0.26015141292947
C          141.79931718991708       -3.34866828334959        0.65062057876535
C          143.03264175758537       -2.72233245348227        0.52431362997480
C          144.30351414813208       -3.41645567043223        0.66535938782051
C          145.26612885575975       -2.49006806983004        0.48450641447253
C          144.58238875334047       -1.23124445311973        0.23395617646239
N          143.24040633701699       -1.41021894340914        0.26413479180095
H          146.32202091308807       -0.03826932433451        0.00968318905983
H          146.33580213188330        2.60276104409480       -0.50318661332019
H          144.41842245661601        4.43980949962976       -0.87673652167005
H          142.58215018993130        0.70715972215985       -0.15331012774269
H          141.75810847568533        4.37605378869659       -0.89695812195013
H          139.17666978464464        4.43116167095682       -0.96056986340049
H          137.23643465137800        2.59017005216259       -0.60220249735819
H          137.23778598987113       -2.63892510723004        0.54135213123657
H          139.16158025746452       -4.46802052986990        0.90279834874110
H          140.97650860652197       -0.73773483188656        0.10967434917340
H          141.80803442382535       -4.41193755552834        0.86813053016494
H          144.40822093949924       -4.46970779206728        0.87455379554735
H          146.33769884034294       -2.61251546768026        0.51201994710387
C           69.34975580830132       -0.01043499709280        0.04466245034970
C           70.56734314659464       -0.01542046334951        0.04042207401365
C           80.39566230815602        0.02069277293258       -0.02595997144987
C           81.61342093023387        0.02730048320921       -0.02752163973617
C           91.44567127110352        0.01424624106870        0.00924695297612
C           92.66375218458393        0.00831380329035        0.01128702583851
C          102.50803225774388       -0.03358355792971       -0.01050099872210
C          103.72657883083906       -0.03267656120921       -0.00177646190081
C          113.57395464251168       -0.01070591062892        0.00723894137317
C          114.79225704454603       -0.00632116586824        0.00422259257013
C          124.62612378731654        0.01235171064089        0.01371221277182
C          125.84395542205382        0.01126562908472        0.01797724035105
C          135.67365011971853        0.00834881403942       -0.01165410756259
C          136.89116330971598        0.00371640327499       -0.02141631973760
C           71.97463670939516       -0.01101010538051        0.02894396197387
C           72.61005338955528        1.21500113264785       -0.24846592335813
C           71.99511688973028        2.46021445952908       -0.54294226095125
C           72.98598154895315        3.37956140358598       -0.75680627376253
C           74.23541282552885        2.71941223938962       -0.60151950082610
N           73.95712714451547        1.41562733799126       -0.29526208261811
C           75.49759741659609        3.28766987658875       -0.73862855880625
C           76.73342323127892        2.67444213843603       -0.60342930163389
C           77.99097906095994        3.37905830873199       -0.77775196681271
C           78.96783167866359        2.47049464558861       -0.57577533014648
N           76.96636451113815        1.36775934872223       -0.30276733225920
C           78.30441559572971        1.21467561976339       -0.27844843474253
C           78.98903553157463        0.00872502568905       -0.02176688158386
C           78.35496648310631       -1.22118138152757        0.23917741331430
C           78.97016670921926       -2.46930753233483        0.52192805033200
C           77.97905177516428       -3.39059191777524        0.72495254573153
C           76.72930446990527       -2.72892642841389        0.57549142338324
N           77.00791945535485       -1.42232597703261        0.28141789475353
C           75.46705952029221       -3.29607270303227        0.71301082305659
C           74.23104223490211       -2.67934152431659        0.59184695067755
C           72.97421316631652       -3.38213966839596        0.77905294925751
C           71.99691259476022       -2.47099527295302        0.59258149458052
C           72.65865548523441       -1.21622505314722        0.28788358532616
N           73.99738756842800       -1.37173181268927        0.29763779346747
H           70.93060945865514        2.62234142472085       -0.59005239081033
H           72.87135551407901        4.42309560968655       -1.00319063519000
H           74.64911970998777        0.69174743044284       -0.13081484255869
H           75.50514033894845        4.34492750151849       -0.98531429856698
H           78.08087537886662        4.42563393900328       -1.02334990213759
H           80.03627243420458        2.60768907048759       -0.62457591456522
H           80.03472909605424       -2.63159630432509        0.56803435454632
H           78.09314644535682       -4.43651212493269        0.96126243459257
H           76.31599815888362       -0.69728991165218        0.12208175857986
H           75.45861879507142       -4.35516590122041        0.95173352177218
H           72.88513477070366       -4.42918783444240        1.02284788263785
H           70.92930793180874       -2.60642596283186        0.65561180931938
C           83.02004096104505        0.03349319855291       -0.02687119815150
C           83.66167149286078        1.26266930848075        0.21898531618908
C           83.05517313569433        2.51787290875653        0.48802758319370
C           84.05297424540190        3.43465060814083        0.67970020672869
C           85.29795961196152        2.76296977901883        0.53598971703190
N           85.01015460148102        1.45521110297310        0.25701661163335
C           86.56452937632349        3.32335074828401        0.66455140872769
C           87.79665609430323        2.69886048394566        0.54570641795695
C           89.05761864206910        3.39740358342808        0.71976052206238
C           90.02979756196875        2.47973502698952        0.53722022723411
N           88.02333469716629        1.38678766588919        0.26398056262959
C           89.36071057701771        1.22491095273067        0.24955883407237
C           90.03916261865453        0.01291955020097        0.00322245339298
C           89.39612252210435       -1.21389331945003       -0.25284566844828
C           90.00194145411145       -2.46727689042618       -0.53145807281686
C           89.00416871352196       -3.38302992775761       -0.72711015172796
C           87.75949126481950       -2.71253342843263       -0.57651537047908
N           88.04765114315384       -1.40616103135471       -0.29059011219219
C           86.49338504845856       -3.27407971167942       -0.70246181698933
C           85.26113371985167       -2.65149396042275       -0.57531753300675
C           83.99981675024557       -3.35106790578587       -0.74228112038597
C           83.02796132785551       -2.43435520723215       -0.55342309891600
C           83.69801918450248       -1.17895891294615       -0.27018774087250
N           85.03544867994314       -1.33995541179524       -0.29147555744945
H           81.99170281128733        2.68792879469770        0.53285519120518
H           83.94617759725814        4.48394613953094        0.90420527957682
H           85.69656043972958        0.72324322689781        0.10541927890315
H           86.57988222660560        4.38480912255685        0.89227512186748
H           89.15293004985932        4.44639232946935        0.95277089469422
H           91.09857003878571        2.61056381129869        0.59330152231101
H           91.06508702613816       -2.63714921229787       -0.58032326611683
H           89.11072297856497       -4.43083462109479       -0.95846203754139
H           87.36136899614770       -0.67524565102100       -0.13339009473001
H           86.47843487070126       -4.33472144313384       -0.93384377002350
H           83.90404830557100       -4.40000593012474       -0.97524581928021
H           81.95891843485663       -2.56586549338091       -0.60335261459217
C           94.07016716496112        0.00730203633482        0.00877728141886
C           94.71820250563617        1.24240200987121       -0.18790296606808
C           94.11876224845952        2.51085413660366       -0.40459607997165
C           95.12144654540793        3.42864591902625       -0.56281546980532
C           96.36260907319466        2.74433711872146       -0.45017082072496
N           96.06768111186095        1.42834270520565       -0.22202475198325
C           97.63155888584376        3.30252040866703       -0.56329456498236
C           98.86185003759975        2.67004892096495       -0.47257741668153
C          100.12328045343271        3.37137096049367       -0.62929944790169
C          101.09403592395979        2.44641010105488       -0.47960357203628
N           99.08718447437124        1.34893867738285       -0.23447407903663
C          100.42433132674677        1.18455672478227       -0.22814740544275
C          101.10169761404822       -0.03476422123417       -0.01311013735132
C          100.45232800531849       -1.26667449174334        0.20205170347654
C          101.04999696305924       -2.53196130167979        0.43993789963122
C          100.04695179000802       -3.45018170538012        0.59239733041598
C           98.80648032453384       -2.76921533107038        0.45575448473859
N           99.10265128525697       -1.45431198824774        0.22185974368822
C           97.53775211921344       -3.33170866045533        0.54834233021319
C           96.30688751892085       -2.70294266773262        0.44069846345578
C           95.04453251248350       -3.40805433316591        0.57279213234664
C           94.07397833143631       -2.48252392332768        0.42448550464540
C           94.74549054801392       -1.21640900491452        0.19932523357083
N           96.08270896008476       -1.37977203710898        0.21518978236437
H           93.05641143473152        2.68913930993000       -0.43952932550524
H           95.02032091372229        4.48668206641825       -0.74479197764501
H           96.74964654993434        0.68641869602780       -0.10165595063775
H           97.65070214165942        4.37156427981151       -0.75211917637604
H          100.22002571483031        4.42698344286296       -0.82930525617991
H          102.16240006724433        2.57734975496515       -0.53698648643642
H          102.11164921045105       -2.70873863416593        0.49158480976009
H          100.14746620087752       -4.50633470567303        0.78533071862063
H           98.42123834141421       -0.71465346457961        0.08538199484220
H           97.51947018481140       -4.40110626151087        0.73529158165739
H           94.94721669376180       -4.46649634185107        0.75704401570848
H           93.00483954119241       -2.61528627485147        0.46639305697069
C          105.13285141483887       -0.02609451305489        0.00668583289156
C          105.77511003803498        1.22352631451499        0.11554928687318
C          105.16988072564348        2.50080282014068        0.24561112834104
C          106.16742078474839        3.43437047862043        0.32206679087347
C          107.41188542016377        2.75160151018960        0.24396818930051
N          107.12365566519667        1.41995445520312        0.12146226227637
C          108.67704846057943        3.32789638023174        0.28741880794236
C          109.91196604496744        2.70088323724728        0.22811312315335
C          111.16933171238966        3.42374877596506        0.29445063071009
C          112.14619419700311        2.49616945027896        0.21810379511428
N          110.14541800946121        1.36511190572144        0.11227883719436
C          111.48369347753942        1.21081356308819        0.10281086273859
C          112.16771869660988       -0.01970884297086        0.01035067361980
C          111.52658380814862       -1.27120439860687       -0.07716959634248
C          112.13253403320915       -2.55008589568888       -0.18738276175844
C          111.13511692983752       -3.48472347713305       -0.25234837775737
C          109.89032400278016       -2.80093739054544       -0.18812136452050
N          110.17811119339864       -1.46791762843820       -0.08185862098650
C          108.62487965362766       -3.37617444012016       -0.23738721070585
C          107.39014256674641       -2.74720953393945       -0.19751515804469
C          106.13335508164784       -3.46914050592179       -0.28140193322842
C          105.15632834115968       -2.54075330928838       -0.21909936104893
C          105.81762209714525       -1.25605119292106       -0.09193595455937
N          107.15588854776352       -1.41113875208346       -0.08527375426042
H          104.10724116425273        2.67513348706286        0.28200164715449
H          106.06059271989838        4.50234356241082        0.42593607663678
H          107.80938206717116        0.67531419002361        0.04839108138239
H          108.68841718921188        4.40925656464015        0.38452755813789
H          111.25939971405752        4.49454268962190        0.38919177483261
H          113.21432872539891        2.64003051778187        0.24253004257846
H          113.19546162205921       -2.72457585555495       -0.21835648624155
H          111.24222142196089       -4.55409641857176       -0.34034318621617
H          109.49221926781996       -0.72242963447809       -0.01996719600303
H          108.61304434094998       -4.45827458671216       -0.32584794443420
H          106.04377847522805       -4.53979697378223       -0.37815572046555
H          104.08870766141040       -2.68399367744503       -0.25906703248958
C          116.19860518657859        0.00161883552094        0.00066462859579
C          116.83930792755579        1.22079988347354       -0.29574979660488
C          116.23178149322092        2.46183508521417       -0.62140216162788
C          117.22796115114906        3.37350367279008       -0.84281390440393
C          118.47364117223725        2.71285976531185       -0.66064930096976
N          118.18748146180015        1.41601386918367       -0.33220575774342
C          119.73864279087682        3.27527281921570       -0.79454906468782
C          120.97249564545993        2.66300162534039       -0.63653856567721
C          122.23231293835828        3.36312437145800       -0.81266495542879
C          123.20644114021717        2.45693541909066       -0.58779166720297
N          121.20137036718801        1.36150504861879       -0.31195332651440
C          122.53923835319010        1.20724714910753       -0.27430531608156
C          123.21959631075435        0.00489477275541        0.00894673443216
C          122.57998715318692       -1.21835564355493        0.28813603451151
C          123.18896857306800       -2.46222786132570        0.60035941847507
C          122.19328491965321       -3.37681104798021        0.81217248764428
C          120.94716276094100       -2.71471791645616        0.63844304384113
N          121.23203862172195       -1.41482746163289        0.32219896907413
C          119.68186849877979       -3.27585557047991        0.77514948345343
C          118.44861383464496       -2.65909767628212        0.63241461468063
C          117.18955049031845       -3.35624289956116        0.82334092144030
C          116.21534481986865       -2.44694754989238        0.61269209823600
C          116.88100671963409       -1.19918871399474        0.28925201699212
N          118.21870977296653       -1.35631410763711        0.31196978255730
H          115.16859695601335        2.62672683860559       -0.68274094094763
H          117.11953491572505        4.41225711698798       -1.11128574578094
H          118.87511586990809        0.69344224233872       -0.14516681219438
H          119.75104551458357        4.32789139033967       -1.06045085099129
H          122.32563599100408        4.40536197057541       -1.07487289539901
H          124.27537821755692        2.59207604389994       -0.63050985767377
H          124.25254227452426       -2.62651767840798        0.65960902702177
H          122.30229978120559       -4.41821889005622        1.06986736936309
H          120.54387780145363       -0.69087881371827        0.14258773475884
H          119.66873168000157       -4.33029638057174        1.03355702206155
H          117.09672430498902       -4.39843597566557        1.08576389758129
H          115.14710051606872       -2.57954582202884        0.67085768241410
C          127.25055950409995        0.01551006970599        0.02048849393862
C          127.89221250437119        1.25082490647366        0.23291761156636
C          127.28495212182622        2.51149587830682        0.47393563021606
C          128.28197805458743        3.43338986947869        0.64258602525648
C          129.52747695151248        2.75997605436113        0.51108237282508
N          129.24046723560519        1.44562562628552        0.26332891232117
C          130.79351910101684        3.32462721141749        0.62170317697293
C          132.02573500827597        2.69891417480032        0.50782174954367
C          133.28726497661785        3.40239679355004        0.65729067169216
C          134.25914448370196        2.48288685692375        0.48394785918883
N          132.25127553049458        1.38207650327682        0.25066133553021
C          133.58925628525034        1.22176908199079        0.22667578071198
C          134.26623918259443        0.00665733089392       -0.00306919563931
C          133.62360490344216       -1.22664533131608       -0.22537945189225
C          134.23016639320306       -2.48417098643998       -0.48272416041575
C          133.23327108134936       -3.40810622036750       -0.64210110501268
C          131.98841095443288       -2.73847735924870       -0.49027385454785
N          132.27538100567079       -1.42462386444487       -0.24053291001972
C          130.72245212151779       -3.30728602190528       -0.58318518943661
C          129.49057770312220       -2.68382420778567       -0.45884600559223
C          128.22879773669086       -3.38986466907682       -0.59185130801421
C          127.25743270954138       -2.46838718081639       -0.42523365806389
C          127.92817045124472       -1.20374407507375       -0.18807492288432
N          129.26538604369279       -1.36412599930759       -0.21423148715069
H          126.22142299483474        2.68133432105521        0.51749435996148
H          128.17449937811134        4.48742384357143        0.84325192078874
H          129.92770610134284        0.71157350649183        0.12650325115232
H          130.80883390017377        4.39069684159996        0.82664494676286
H          133.38284322094458        4.45589263626664        0.86867498525281
H          135.32801012197126        2.61629276689350        0.52780624465630
H          135.29332014161767       -2.65118405555884       -0.54300876733767
H          133.34074168902745       -4.46074838189072       -0.84999578550982
H          131.58833747062221       -0.69266090319989       -0.09178798602990
H          130.70772447574771       -4.37400517595057       -0.78473498707912
H          128.13247946723655       -4.44604625369715       -0.78915315335176
H          126.18821266044804       -2.60280915220292       -0.46122204104291
