236
 energy: -414.900774336598 gnorm: 0.000270431068 xtb: 6.5.1 (b24c23e)
Zn          50.49966077645081       -0.01872243397254       -0.05910011441678
C           47.08853727778159       -0.03823696385111       -0.06415117534030
C           47.71426261755512       -1.27916811383637       -0.07387371800959
C           47.03599525250289       -2.54458116736052       -0.04157125862406
C           47.99178726661154       -3.50728172492000       -0.03475924168571
C           49.26692310098402       -2.84144653408251       -0.07404274720182
N           49.06273626987043       -1.49227932747282       -0.09128109162040
C           50.51567512329196       -3.47440193840659       -0.06203567344287
C           50.52484457585140       -4.95913073099289       -0.04097108000602
C           49.97241116844130       -5.69008151446975       -1.09288570082281
C           49.98174029443125       -7.07658594313265       -1.07461810820276
C           50.54224752201242       -7.74967070990456        0.00816944671396
O           50.56960500006700       -9.10705377437926        0.06800680205002
C           51.09469243000350       -7.03206319401757        1.06724428330622
C           51.08640222980920       -5.64873054269551        1.03648706133508
C           51.75699797602395       -2.82779172200388       -0.05998831773239
C           53.03348678039984       -3.48595778716876       -0.09120143363492
C           53.98365404595003       -2.51636317048554       -0.09146387963140
N           51.95676076842875       -1.47301163559119       -0.05580000891677
C           53.30017941744500       -1.25693088866328       -0.07174208079298
C           53.93589851060749        0.00047379590705       -0.06968989119613
C           53.28642007302010        1.25079203752221       -0.05675406519792
C           53.95492645561877        2.51750303459140       -0.10318068942314
C           52.99383390792553        3.47632475661680       -0.09181152640615
C           51.72567146610752        2.80403758162170       -0.03387262323405
N           51.94093304679831        1.45171507791343       -0.02334083429581
C           50.47697752716265        3.43667574873397       -0.02378895553966
C           50.47010874566811        4.92099179437346        0.00031951493428
C           51.04567248818149        5.61560652174017        1.06724264214839
C           51.04076410321896        6.99891446790932        1.09896085845695
C           50.46098824416118        7.71178660030793        0.05131373595664
O           50.47672665467030        9.06929269668193        0.11144768299279
C           49.88588592834038        7.03386613192798       -1.02076741252592
C           49.88998875628116        5.64742556475482       -1.03996080293077
C           49.23542614991707        2.78940434200726       -0.03351990166136
C           47.95291370880211        3.43978709120147        0.02049538356661
C           47.00812858240602        2.46638191500127        0.00157395668847
C           47.70060790965645        1.20955999241855       -0.05297334813798
N           49.04653826801969        1.43833256470253       -0.07020452680783
H           46.00296796704101       -0.04426285583423       -0.04812985574329
H           45.96452483652171       -2.66859067751081       -0.01757775657420
H           47.85025789837403       -4.57551943504977        0.00637241735007
H           49.54697803325116       -5.16778984257265       -1.94270407575688
H           49.55675698694299       -7.63959148742886       -1.89880934047449
H           50.15584631200617       -9.50109918517113       -0.71157006886960
H           51.52364043616858       -7.56837073344191        1.90470633852313
H           51.50521497558945       -5.09040497433235        1.86634826777189
H           53.18320331108917       -4.55321947897457       -0.12146942980439
H           55.05475782847144       -2.63879425486920       -0.10403718988119
H           55.02363487066495        2.65162025187934       -0.15220162572927
H           53.13064322888554        4.54481771336890       -0.13671993103402
H           51.48621522498078        5.06103731938002        1.88833304952558
H           51.48066199599350        7.53902609923839        1.92826636840621
H           50.04767877787885        9.45989785719544       -0.66157575834550
H           49.43948249255421        7.59306634884262       -1.83617733401391
H           49.45378724595290        5.12159218719953       -1.88210504659998
H           47.79900243457479        4.50543794039199        0.07997027078129
H           45.93539991532272        2.57778690026534        0.03062655306075
Zn          83.25651412824183        0.00183147618708       -0.02889927153710
C           86.66747137863194        0.02662524199846       -0.06686983887939
C           86.03884747267034        1.26430177018274       -0.13445511233474
C           86.71441207234321        2.53084937676462       -0.17636936028311
C           85.75646391149907        3.49075860122690       -0.21300173589443
C           84.48258059698730        2.82143676294253       -0.20350900201382
N           84.68974458906470        1.47376940596015       -0.14959103435491
C           83.23271735098422        3.45231409563618       -0.21687252842055
C           83.22126693781816        4.93460402453281       -0.30090444256039
C           83.76640243946073        5.58606876440602       -1.40765846936358
C           83.75393667754170        6.96986147983162       -1.49338550278592
C           83.19778427763109        7.72094178613477       -0.46076530542617
O           83.16750935016471        9.07885791731304       -0.50279086724687
C           82.65336720459638        7.08348297529361        0.65237199093465
C           82.66424766238175        5.70165947041956        0.72520774034117
C           81.99291673459639        2.80518587752371       -0.16082144715300
C           80.71461169249399        3.45684717346297       -0.23255896618291
C           79.76687824942337        2.48703643927171       -0.16910219933358
N           81.79677883504019        1.45331401960132       -0.06579632112567
C           80.45374361940088        1.23343726193869       -0.06383323992320
C           79.82163463454616       -0.02398783183096       -0.00621073571667
C           80.47272496228875       -1.27156809647626        0.04803458788792
C           79.80586257601071       -2.53938338741255        0.09393496704247
C           80.76898223768623       -3.49470411869896        0.14642887065514
C           82.03674188568924       -2.81881669083503        0.14270072439681
N           81.81909444423803       -1.46873897755713        0.07366053963071
C           83.28684965478556       -3.44747175070294        0.17767607721950
C           83.29893950581355       -4.92845128146874        0.28434591531978
C           82.74660983488310       -5.56433775773908        1.39893674884207
C           82.75951489667619       -6.94372490786398        1.50795354875617
C           83.32373662243975       -7.71174379724060        0.49127978957569
O           83.31704569728188       -9.06374869677112        0.62787294879359
C           83.87532763312643       -7.09261316932418       -0.62769803379311
C           83.86371753308376       -5.70945215869066       -0.72425328081341
C           84.52679095800178       -2.79930683405493        0.12455996633555
C           85.81107825970572       -3.44416320213867        0.20012979712221
C           86.75369771693556       -2.47147612816279        0.12423995925499
C           86.05822856331403       -1.21998027968865        0.01326258506912
N           84.71265713338826       -1.45144982282308        0.01950790286080
H           87.75313211827564        0.03534777156690       -0.06204668407859
H           87.78577001989463        2.65793609849116       -0.16929759879732
H           85.89570869767435        4.55995565261091       -0.23027167411040
H           84.18821780874345        5.00219639107403       -2.21831866713013
H           84.17273596492926        7.47029049852127       -2.36002208558404
H           83.57067895862995        9.41383839850906       -1.31486186708435
H           82.22802589324193        7.68028997375057        1.44977981947670
H           82.25111977136142        5.20639181331238        1.59688338360101
H           80.56238050918734        4.51917445699749       -0.33582307091940
H           78.69558681024142        2.60434952624131       -0.20390704201845
H           78.73629505564966       -2.67622922041073        0.08534939599206
H           80.63391168009137       -4.56403398340368        0.17298797015284
H           82.31831963960978       -4.96653882099339        2.19581544209113
H           82.33798381574465       -7.43835616459985        2.37434166312828
H           83.73233839958016       -9.49520044312298       -0.13080662690518
H           84.30979176146658       -7.69473940734572       -1.41861330692524
H           84.28241707500682       -5.22952789206482       -1.60193900698710
H           85.96751571461729       -4.50536388799750        0.31071903445903
H           87.82687510414229       -2.57957777925407        0.14917687067641
C           55.34544515572659        0.00780694937710       -0.08649970567777
C           56.56255046480064        0.01218668128024       -0.09575186655144
C           66.26908076665154       -0.00570135528268        0.00600975590209
C           67.48734827819268       -0.00581958228328        0.00763354380985
C           77.19424177103106       -0.02980521572633       -0.01231911378126
C           78.41099846658506       -0.03229816849407       -0.01188235234282
Zn          61.41474927324737        0.00990401400834       -0.05688325162453
C           57.97162985528532        0.01558667236989       -0.09434992582468
C           58.61272083742578        1.13922334338823        0.46405390120625
C           57.93606975724893        2.24461523496297        1.07422140243908
C           58.89035633272303        3.12270167033662        1.47715974875622
C           60.16093251644110        2.56378455264205        1.11006916622492
N           59.95609852983414        1.35061303320773        0.50916621575436
C           61.40499569638923        3.16269430230021        1.33934323409963
C           61.40209511584838        4.51550456679286        1.94927098348246
C           62.02944179855631        4.74163419472165        3.17717437787921
C           62.02369862631045        5.99805795021467        3.75657311736642
C           61.39104635992961        7.05580232909982        3.10625656054074
O           61.40613288860844        8.27728177297933        3.70099385435392
C           60.76546682940639        6.84752040020564        1.87936194199453
C           60.77051268736150        5.58327479657781        1.31046532391915
C           62.65188245227258        2.59696514480661        1.04838944427819
C           63.91742576091796        3.25415657143143        1.21222938843113
C           64.87735966647301        2.37162893197103        0.83301058236300
N           62.86567406777604        1.33698900681546        0.55609844973930
C           64.21041734576674        1.16959473079094        0.43172357169922
C           64.86075657824593       -0.00279538529924       -0.00599522474543
C           64.21455405129349       -1.17148332780020       -0.45999953194277
C           64.88351685003501       -2.38009632923592       -0.83733336466521
C           63.92890336088511       -3.25381446886416       -1.24918360424948
C           62.66483074902597       -2.58478823177798       -1.12859975270607
N           62.87326978474689       -1.32689048642791       -0.62872607622070
C           61.42363811794083       -3.13935588981237       -1.46197800342482
C           61.43100081048177       -4.48984258383464       -2.07728246015188
C           60.77797187157880       -5.55732887854886       -1.46005241088824
C           60.78441205067475       -6.81964070608760       -2.03322873933091
C           61.44302064890829       -7.02595479012530       -3.24303142876681
O           61.47029450609501       -8.24567094947162       -3.84126391767935
C           62.09707690991552       -5.96833101664313       -3.87198255658892
C           62.09158522679259       -4.71399036671209       -3.28796180563392
C           60.17747248926607       -2.53322686319525       -1.26646790819270
C           58.91363380526107       -3.08459480377294       -1.66643743469735
C           57.95365631251246       -2.20584734891255       -1.27840840864148
C           58.62053924489749       -1.10656362748043       -0.64694988777992
N           59.96377019079839       -1.32193015805591       -0.66471422281160
H           56.86742908328549        2.32781258930066        1.19066805971458
H           58.74680059029349        4.05838407488202        1.99313197526914
H           62.51008611243630        3.91591797097568        3.68997874967139
H           62.50268206167464        6.17333364826752        4.71197579341133
H           60.93389332444992        8.93226806127186        3.16971364881976
H           60.27842110152653        7.67500321240094        1.37451308125554
H           60.29400512378465        5.42585207412597        0.34916860825350
H           64.05384552220328        4.26700059307434        1.55554926247522
H           65.94413451719946        2.52356531387935        0.81194862267451
H           65.94711939873379       -2.54316479435915       -0.77705591227102
H           64.06720284761563       -4.26828666999892       -1.58696182086756
H           60.27551625077705       -5.40132199711911       -0.51184758880419
H           60.28100976744373       -7.64718620042917       -1.54479274582065
H           60.98425811545439       -8.90128083245060       -3.32335890782130
H           62.60180923307843       -6.14217512431254       -4.81432095076288
H           62.59025191228535       -3.88850309004357       -3.78367237152594
H           58.77848201925833       -4.01636650189652       -2.19173277989885
H           56.88764876928568       -2.28394583561024       -1.41985971759376
Zn          72.34201110806741       -0.01351657373444       -0.00828347417324
C           68.89572133632728       -0.00797269159168        0.00456443517389
C           69.54828294332859        0.99976601244694        0.74459650167075
C           68.88481300420248        1.98196824344539        1.54837395924098
C           69.84553685126133        2.78923457384505        2.06737555681096
C           71.10807493208419        2.30847604275145        1.58197372384500
N           70.89191971499768        1.20863915971420        0.79492534379895
C           72.35441965430384        2.87153723168087        1.87958772100617
C           72.35768312102806        4.11375159853588        2.69188577663653
C           72.99934643583347        4.15338956007413        3.93233766254727
C           73.00445066494387        5.30984944096370        4.69202367857436
C           72.36818287109278        6.45371177748285        4.21373318411681
O           72.39624260694360        7.57362253343317        4.98223345022077
C           71.72545872509171        6.43045460742801        2.97825263085719
C           71.71976782296316        5.26479801867823        2.22785602705817
C           73.59743041183300        2.36541379856141        1.48206689208835
C           74.86842137633693        2.97545032174220        1.75451199271391
C           75.82208728625763        2.16406517011153        1.22908151191965
N           73.80105620117074        1.21014318704794        0.77623815458310
C           75.14434966295663        1.05943624942202        0.61832610472267
C           75.78413631368196       -0.02532010996666       -0.01276618486952
C           75.13616306475519       -1.10365017509280       -0.64611367172893
C           75.80512361091584       -2.20872861993147       -1.26577478152365
C           74.84488937475774       -3.00836972463016       -1.79735260159891
C           73.57881620638481       -2.39191739328560       -1.51681456320543
N           73.79164918237660       -1.24358238451739       -0.80266279736889
C           72.33143792917680       -2.88745891179114       -1.91313591335269
C           72.32307213723577       -4.12051039251092       -2.73954017238387
C           71.68784020061402       -5.27533329585560       -2.28141612064832
C           71.67728994686416       -6.43047789585439       -3.04777008119328
C           72.30017139628643       -6.43867856293855       -4.29356051562435
O           72.30965389483005       -7.54749231446432       -5.07871377540530
C           72.93505761339782       -5.29132624517397       -4.76514097747943
C           72.94701706924604       -4.14563741844421       -3.98920882496711
C           71.08943203490227       -2.32216372580861       -1.60256716771237
C           69.82189019460097       -2.79604370584350       -2.08146335256854
C           68.86748743652895       -1.99050971559950       -1.54841612445198
C           69.53990783445076       -1.01563381967710       -0.74314362168086
N           70.88247204173761       -1.22769667941458       -0.80551267162407
H           67.82006358170658        2.03455660831424        1.70690697346429
H           69.71204176526702        3.62572787556929        2.73432741246374
H           73.48334284914081        3.26001670150789        4.31099871672269
H           73.49584265043013        5.34066546816569        5.65665293300672
H           71.92409099955334        8.30262627402083        4.55808039627088
H           71.23425153962835        7.32417767384706        2.60839407302726
H           71.22972979186760        5.25190297384126        1.26055206228828
H           75.01297417070060        3.91025682636651        2.27173754182836
H           76.89161116885882        2.29941751256188        1.24899443488596
H           76.87368914783301       -2.35154533191901       -1.28768983387339
H           74.98125555339324       -3.93938231543005       -2.32364800428819
H           71.21221362297364       -5.27335023677473       -1.30688137022086
H           71.18796557498351       -7.32728834940793       -2.68293849186566
H           71.83864849155351       -8.27922888797211       -4.65798226285696
H           73.41121488990490       -5.31064752192762       -5.73769530609008
H           73.42994747070445       -3.24928847442442       -4.36220575245597
H           69.68090548924259       -3.62700042803732       -2.75375867499378
H           67.80149949670978       -2.03936795062203       -1.69913030333537
