193
 energy: -385.277350234980 gnorm: 0.000515436705 xtb: 6.5.1 (b24c23e)
Ni          33.29315397423228        0.01520738444457       -0.03758082290292
C           29.89786745132630        0.05667427765338       -0.13160844100935
C           30.55767147502184        1.26692023229708       -0.10436705274646
C           29.88219098680888        2.52825544004616       -0.09112438973770
C           30.84147889496798        3.48082916492383       -0.03699491149818
C           32.10339985330806        2.80007301687244       -0.02781673570642
N           31.91858502019954        1.44007512599123       -0.06297897194529
C           33.32805106287243        3.45009485279367        0.04698590582381
C           33.34406745237607        4.93437428033727        0.08441832994630
C           32.87509105549053        5.66593692621013       -1.00638778295006
C           32.89314995093940        7.05555447776137       -0.97264331123391
O           32.44582900895742        7.77698727597747       -2.02913476878233
C           33.37541509033387        7.71728949487201        0.15772869746989
O           33.37803362012400        9.08751716487697        0.16343429299179
C           33.84054966819407        6.98595020853618        1.24761211522180
O           34.29510734921757        7.70534531933538        2.32132547427857
C           33.83000989619903        5.59682274824476        1.21444632176135
C           34.53814960808275        2.77116886290281        0.08654132094925
C           35.81051290882773        3.42603572047546        0.12416358119236
C           36.75214600184835        2.45269273326117        0.12652925016093
N           34.70081561903910        1.40384586763000        0.05449134806761
C           36.05407044856069        1.20780510146438        0.08100946378270
C           36.70844050984878       -0.02608892866649        0.04374838242391
C           36.02738124422602       -1.24407842157036       -0.01718193845791
C           36.69734185865261       -2.50415280076051       -0.07161360313277
C           35.73376221983929       -3.45439080950319       -0.11731401571686
C           34.47626572378324       -2.77097815575412       -0.08100519901222
N           34.66960230038679       -1.40803034975064       -0.03277438747559
C           33.24984456108935       -3.41993572036058       -0.11504894468487
C           33.23131549019212       -4.90396997769897       -0.15517804308936
C           33.74308484094027       -5.64119219236388        0.91225473254760
C           33.72308608378452       -7.03062651500851        0.87217635700013
O           34.21209362731034       -7.75768059676159        1.90605813517070
C           33.19578721285627       -7.68661195324782       -0.24127946035137
O           33.19260854145735       -9.05695484099638       -0.25424580570679
C           32.68744997952401       -6.94974667972327       -1.30770845327865
O           32.19008074224914       -7.66348245025945       -2.36638977662403
C           32.69994083422380       -5.56094580462157       -1.26790830756400
C           32.03908558385582       -2.73957981653473       -0.11921808375770
C           30.76149722645476       -3.39022096909296       -0.11740767621201
C           29.82395915707189       -2.41430953846619       -0.12771400173618
C           30.52881470454086       -1.16938304800786       -0.12427506011165
N           31.88563816671819       -1.37539713813593       -0.10907787362089
H           28.81434809203560        0.06968502420422       -0.15385276509426
H           28.81063911765039        2.64752272498544       -0.11259296734559
H           30.71887704055782        4.55084323242202        0.00273107773879
H           32.51131696670944        5.16234360183137       -1.89265916456834
H           32.53985015738380        8.72016345408801       -1.81610024357894
H           33.74104501164148        9.38234382564130        1.01378761409377
H           34.59561682054216        7.11811320228457        3.02725574126968
H           34.18198300409943        5.03352822153240        2.07067529128300
H           35.95567757448337        4.49385589113308        0.13412990443537
H           37.82527633108909        2.55306776132159        0.14826575196968
H           37.76813344693926       -2.62856622001381       -0.07824662731698
H           35.85389246716291       -4.52353768219143       -0.17805870441995
H           34.14275406821286       -5.14229562107572        1.78557419086764
H           34.10808804413855       -8.69970637311731        1.69275327276610
H           32.79528593445431       -9.34664121542203       -1.09084929886176
H           31.85656537460147       -7.07200972734151       -3.05367543991853
H           32.31453035501890       -4.99329934183114       -2.10665806007649
H           30.61379210127535       -4.45779575706706       -0.10008216680605
H           28.74963464115152       -2.50820079303290       -0.13016477026630
Ni          60.15806958420264       -0.05146656313201       -0.00013947905445
C           63.55391704636496       -0.08481600046444       -0.09710513458097
C           62.89268031561321       -1.28908626132948       -0.21274940718021
C           63.56658461346080       -2.54388577128804       -0.34962313274583
C           62.60598047659010       -3.49457611785253       -0.41354919557982
C           61.34493182831681       -2.81807040247921       -0.32420901453302
N           61.53143294010790       -1.46407130590914       -0.19507565387678
C           60.11951519979742       -3.47098251980010       -0.32705655932112
C           60.10181060123390       -4.94897446128693       -0.46851562317328
C           60.56527645659494       -5.54475323817176       -1.64114348988558
C           60.54383200959154       -6.92831777849243       -1.77480552324039
O           60.98548425652203       -7.51830013726434       -2.91214654649703
C           60.06394625089160       -7.72031401689429       -0.73044143104258
O           60.05741134671969       -9.08136493546346       -0.88971556597422
C           59.60519698536927       -7.12461433418565        0.44157093266630
O           59.15308929604431       -7.96692880688024        1.42317096691870
C           59.61908489994459       -5.74166969153321        0.57578000624168
C           58.91029597254634       -2.80124692877839       -0.20085351490984
C           57.63741392119581       -3.45550070372494       -0.23383428574563
C           56.69701284081410       -2.48962089578797       -0.10475659923092
N           58.74895245060207       -1.44012731057134       -0.06535542387278
C           57.39612815626702       -1.24846490286549       -0.00463192606498
C           56.74288221765715       -0.01868957882038        0.10954414145542
C           57.42503550845871        1.19813500866263        0.18187727064503
C           56.75631739615812        2.45682698281001        0.27342864933968
C           57.72070049632593        3.40604577216140        0.32275337929738
C           58.97741465720668        2.72219849652491        0.27172105514745
N           58.78277687998171        1.36221958481536        0.17194361521046
C           60.20404894325736        3.37030544039640        0.30119537630865
C           60.22437627130952        4.85007904614885        0.42333250016070
C           59.73495853206454        5.46523487866986        1.57511430143154
C           59.75856330427360        6.85063199353694        1.68802822040645
O           59.29273970747825        7.45951261534866        2.80544682268579
C           60.26559188179386        7.62481840578604        0.64308175874966
O           60.27248052443915        8.98804583983014        0.78124527480383
C           60.75058147373787        7.00956834409992       -0.50804536475481
O           61.22825232490355        7.83515097235058       -1.49173335158681
C           60.73612019954246        5.62469765836689       -0.62062567721281
C           61.41427815527686        2.69424383503045        0.21986197552549
C           62.69188163936678        3.34066475984051        0.29222038178508
C           63.62916784957581        2.37098854148836        0.17933712287552
C           62.92390868025333        1.13328963218195        0.04669371534643
N           61.56712317526463        1.33705223184959        0.08228456055007
H           64.63747495075367       -0.09656095371585       -0.11820984346365
H           64.63804341906437       -2.66124064125842       -0.38325901803676
H           62.72707283861576       -4.56173419734964       -0.50344984876930
H           60.92702483942236       -4.93884202034884       -2.46176524460747
H           60.88800946460893       -8.47993731707632       -2.81456193783364
H           59.69465571734825       -9.47511425599948       -0.08031599659483
H           58.85553986432638       -7.46749320333502        2.19486624767578
H           59.27188606100218       -5.28474124971167        1.49501621360064
H           57.49103340611018       -4.51647548280404       -0.35337218655872
H           55.62399280432609       -2.59172822585786       -0.08680423873683
H           55.68566950685927        2.58151812253476        0.29071667984437
H           57.60212491398728        4.47549770719869        0.38142273419191
H           59.35025256614902        4.87318858606261        2.39538476306292
H           59.39313777176042        8.41941636382444        2.69448522686333
H           60.64986247574521        9.36866841027913       -0.02773078795167
H           61.54012775722303        7.32312623859564       -2.24937114608283
H           61.10473353952779        5.15212998204720       -1.52346435302912
H           62.83915343346570        4.40038316871647        0.42331805188657
H           64.70352799602183        2.46408460851212        0.18863709573391
C           39.33557478102567       -0.04344355480606        0.06916603506103
C           38.11415461449523       -0.03956239631250        0.05985333153512
C           40.68580897544521       -0.04284271791392        0.07042645937447
C           41.90738561314880       -0.03674738435691        0.06498939443181
C           52.76561934247613        0.00075352479376        0.14982639469048
C           51.54408198767197        0.00002633633894        0.13804884257563
C           54.11588079923773       -0.00095614793778        0.14925785128180
C           55.33731729962982       -0.00600581409391        0.13666114153236
Ni          46.72625063928588       -0.01248935488976        0.03585469762977
C           43.31218947887744       -0.02941999168644        0.05226712975168
C           43.98021571547762        1.17543789121526        0.29011744118217
C           43.30614815925287        2.40051633149861        0.57757990347885
C           44.25566779094329        3.36716115632120        0.61334512991104
C           45.50677000046699        2.72807286467728        0.34256720087500
N           45.32964171194431        1.37203301615899        0.18543045562314
C           46.71130084053289        3.40736960719810        0.20976963626778
C           46.69783892020993        4.88875229140450        0.26597962255807
C           47.40713001856408        5.56547399432674        1.25872916989383
C           47.39522751280707        6.95614114055875        1.32534334593808
O           48.07209778185990        7.62636091334710        2.29382799515074
C           46.67294167691899        7.68992979892314        0.37865647122522
O           46.64641869461501        9.04745310434421        0.41332561888409
C           45.96949306682264        7.00465292957815       -0.61554265503999
O           45.28642957208172        7.78308217571235       -1.51406336772500
C           45.97017075869989        5.61825001880846       -0.67613329936783
C           47.92471765739966        2.75524616147420        0.03363142505533
C           49.17661827922228        3.42717947639070       -0.13573326473799
C           50.13613848179654        2.47002637230543       -0.14800842936892
N           48.11258219801358        1.39149730267477        0.07069271801563
C           49.46674798442040        1.21745459375383       -0.00408010097748
C           50.13943101640894       -0.00282733679631        0.11085114588055
C           49.46850695394754       -1.22716889753384        0.17580122620953
C           50.13884955430673       -2.48121668449212        0.30553761928314
C           49.19002780418020       -3.44222832597570        0.19440116465629
C           47.94285172696642       -2.77025455528302       -0.00746692070152
N           48.12082661651490       -1.40573466420039        0.02445876898141
C           46.74206632960521       -3.42320829444590       -0.25333493551005
C           46.75604637986390       -4.90002463765027       -0.39695265880288
C           47.49273093508892       -5.48928427159854       -1.42514731318142
C           47.49906599952838       -6.87167520080339       -1.56891272763494
O           48.19604713518903       -7.45653164314699       -2.57120501464945
C           46.77453615125381       -7.66587903333695       -0.67756743384499
O           46.81417970502142       -9.04206676308792       -0.85206447660560
C           46.06952090550899       -7.08026585371040        0.37207827017053
O           45.38990470978032       -7.85348624851954        1.26639894634890
C           46.04456684964530       -5.69580728281625        0.50092103928850
C           45.53128335652391       -2.75268934877745       -0.36184446273002
C           44.28297553412960       -3.39553447284571       -0.63824655500680
C           43.32255257588906       -2.44495112913925       -0.53699342247705
C           43.98803816457078       -1.22298592056758       -0.21663918527428
N           45.34128377731772       -1.40614587816300       -0.14573286489272
H           42.24255632302806        2.49434883827041        0.72666783708608
H           44.12986720169233        4.41904673774615        0.81166540760824
H           47.95970028539583        5.00612574734130        2.00519984483745
H           48.52959637233609        7.01574874264063        2.88659306932389
H           46.09610183844213        9.35883627529721       -0.32335053429469
H           44.83585950486538        7.23643352830575       -2.17080342613509
H           45.42562706034598        5.10999340453241       -1.46315254971666
H           49.29708071635645        4.49364826550738       -0.23375330667354
H           51.20328048423998        2.58642678784491       -0.24732802550984
H           51.20008496802398       -2.59567787673579        0.45672306881154
H           49.31321871752442       -4.51152522249856        0.24760673392606
H           48.04223808640712       -4.88000156894195       -2.13093849793475
H           48.08066955383093       -8.41915794131330       -2.50191221723293
H           45.93595932845098       -9.42833628831667       -0.73896123445998
H           45.69643511569594       -8.77009588486231        1.21861197433288
H           45.49379318574621       -5.25144727844038        1.31976886634884
H           44.16595721926725       -4.43994817375231       -0.87695495777818
H           42.25707135515849       -2.54628148471547       -0.66625262140721
