122
 energy: -220.948176196936 gnorm: 0.000353477357 xtb: 6.5.1 (b24c23e)
Ni          14.29414396914696       -0.02911784694436       -0.05537697786833
C           10.90527994753673       -0.08106246374492       -0.21313011377586
C           11.57239200319162       -1.28810782021104       -0.22882035940779
C           10.90769770432098       -2.55409558589510       -0.28299289346080
C           11.86561815340824       -3.50100326559957       -0.15003510382533
C           13.11775593715772       -2.81282400899700       -0.03319027420316
N           12.92848752512043       -1.45462322604952       -0.09670617649520
C           14.33215102437906       -3.44880119947720        0.18978164174745
C           14.35122963433508       -4.92716158246219        0.32092889420648
C           14.01532037286428       -5.74056681707869       -0.76074457339757
C           14.03824886679399       -7.12178055813552       -0.64073432096999
C           14.39420171655101       -7.70413789309325        0.57338699265446
O           14.42658904768801       -9.05210383936082        0.73556474225364
C           14.72996473131616       -6.90164725315306        1.66219335772038
C           14.71075594491931       -5.52431644060588        1.53098560732960
C           15.53406131529170       -2.76042989878794        0.28081727491723
C           16.80304244731222       -3.40317753027122        0.44166413000490
C           17.74625885302156       -2.43491273886709        0.35662874804300
N           15.69987263788996       -1.40306803732203        0.11690853938940
C           17.05257943832316       -1.20454529914329        0.14597340694644
C           17.70673197211225        0.01430749817113       -0.05524693204615
C           17.02073062656931        1.22117216867637       -0.21538407633187
C           17.67996434886432        2.47297580517513       -0.40855023334397
C           16.71422051099143        3.42310814275594       -0.41774108311710
C           15.46669008290961        2.74723978793529       -0.22857111904023
N           15.66517226436096        1.38793205935279       -0.13811867740945
C           14.24389443722330        3.39941859467604       -0.13680878069507
C           14.22869737919994        4.88194461463140       -0.15277262032929
C           14.87475737315441        5.60698061495145        0.85150077133202
C           14.86346088625624        6.99041048398584        0.84554104718167
C           14.20755015230363        7.67175047827153       -0.17820492201954
O           14.21911010802958        9.02939463439370       -0.15593280487888
C           13.56362853322279        6.96210502042685       -1.18913747058558
C           13.57385264591350        5.57591602658656       -1.17050215915670
C           13.03688990974816        2.71737855985208       -0.04972782527211
C           11.75941444104080        3.36110852922899        0.04498106502782
C           10.82325305051421        2.38448318485527       -0.00376419447626
C           11.52938621989362        1.14424861260955       -0.10391913169812
N           12.88562214052976        1.35379249428725       -0.10219018813552
H            9.82279290863362       -0.09767884636398       -0.26431520746172
H            9.84211710521220       -2.68081149025780       -0.39034472060856
H           11.74621586635862       -4.57184319588748       -0.12058921734750
H           13.74999601306850       -5.28805882716913       -1.70975231586594
H           13.78261555457487       -7.75058256339897       -1.48685612789002
H           14.17838935416760       -9.51092861149327       -0.07816507718460
H           15.00237249010260       -7.36834810184273        2.60070557725383
H           14.96340679686064       -4.89893740737286        2.37988643461376
H           16.94504291847529       -4.46234524941506        0.58083179347852
H           18.81804427233887       -2.53075132162739        0.42122930326784
H           18.74570715939468        2.59315918007394       -0.51811107058087
H           16.82554043026992        4.48681111762780       -0.55062475738577
H           15.37644884398835        5.07647124306145        1.65304433027562
H           15.35739985737438        7.55516551838642        1.62650265142740
H           13.73778758636520        9.39832067960454       -0.90862677430850
H           13.05915625851267        7.49670970263609       -1.98687931543631
H           13.08366012895711        5.02484368793741       -1.96538291604034
H           11.61048119216563        4.42456161112287        0.13849142603941
H            9.74921771265298        2.47520647878977        0.03209744529245
Ni          30.29321722376298        0.02031858770765       -0.05973172134297
C           33.68221561920546        0.04950353137458       -0.22136565606543
C           33.01502473146773        1.24168054446645       -0.41062059732633
C           33.67966126688849        2.48687508623692       -0.64563355733254
C           32.72160541342516        3.44292313022890       -0.65050916681586
C           31.46945700588831        2.77847290707268       -0.43668547706511
N           31.65883957043161        1.42524485685825       -0.30455548195733
C           30.25495330825191        3.43973179196477       -0.30762442494697
C           30.23594607623263        4.92165166387491       -0.38948693703143
C           30.57171843205432        5.57179928722200       -1.57652237213119
C           30.54920980604428        6.95597578271782       -1.65538179532860
C           30.19388137587391        7.70617901633570       -0.53695546723308
O           30.16202742332193        9.06349521402315       -0.56928010155483
C           29.85822397219556        7.06784820850175        0.65556093411917
C           29.87695754354392        5.68590393384806        0.72276973031665
C           29.05304261555467        2.77141926745060       -0.11926036934594
C           27.78399070117880        3.43046272624274       -0.05233007565849
C           26.84085224732003        2.45990837559309        0.00188200235224
N           28.88735981838946        1.40456000813334       -0.08700630595342
C           27.53466628571781        1.21210218452520       -0.03001459993092
C           26.88061743182192       -0.02306479705151       -0.05456284872546
C           27.56673800853454       -1.24035535917624       -0.04002394311472
C           26.90773784010103       -2.50703705952071       -0.05204017341107
C           27.87356441001226       -3.44848293696979        0.07583753051329
C           29.12093494188658       -2.75225241756359        0.16649358486854
N           28.92229799784968       -1.39407063733772        0.06079788484456
C           30.34368408661323       -3.38432025108756        0.35169069477982
C           30.35889751670672       -4.85376029555901        0.54910347998384
C           29.71381902601838       -5.42663724482134        1.64785620183091
C           29.72527398890207       -6.79652425316516        1.84107677248097
C           30.38021933185928       -7.61813523774684        0.92539261299602
O           30.36875655693791       -8.95844868261628        1.14280917410663
C           31.02310947444060       -7.06141613361321       -0.17777072016933
C           31.01286691432621       -5.68696754406925       -0.35877006825533
C           31.55062090517708       -2.69677476091386        0.34061845435659
C           32.82803982512680       -3.32015634852551        0.52737390757674
C           33.76420664700588       -2.36050222845929        0.33968692141092
C           33.05810698058922       -1.14753859182553        0.06219700613988
N           31.70188221727593       -1.35482029575808        0.09309618993468
H           34.76473255131457        0.05877635106597       -0.27373091004585
H           34.74529356453918        2.59703226640161       -0.76947229032762
H           32.84091930174713        4.50691046639894       -0.77506785881597
H           30.83663644073739        4.98805032244505       -2.45106824089154
H           30.80474685351895        7.45715766979560       -2.58284260119284
H           30.41030583792482        9.40109611670537       -1.44029428716391
H           29.58632542398741        7.66412701208734        1.51773599235291
H           29.62441585893445        5.18851756898611        1.65250002043715
H           27.64194062722147        4.49863942858289       -0.06626167024322
H           25.76903789676856        2.56385839926183        0.05184788376237
H           25.84206779767568       -2.64191713372679       -0.14371619949027
H           27.76244670820934       -4.52026595754688        0.09711591142050
H           29.21279352721084       -4.78625647170767        2.36513473814177
H           29.23219513410453       -7.24297368258125        2.69569659437925
H           30.84931968084484       -9.43187371804406        0.45053400934381
H           31.52681518399259       -7.70530317826115       -0.89077016944517
H           31.50235366451827       -5.25599463229099       -1.22506355476159
H           32.97689279511550       -4.35922277846703        0.77241647319455
H           34.83821938648224       -2.44501901853466        0.38889460556743
C           22.90752827305598       -0.01745526081261       -0.09319394883504
C           21.67979618170696        0.00067490377266       -0.09411291824082
C           20.33483739432010        0.01185701189588       -0.08698165215412
C           19.11155110604766        0.02461780881705       -0.07751245162487
C           24.25249655939618       -0.02834728967784       -0.08669803394468
C           25.47581690972131       -0.03659984329978       -0.07496833168792
