207
 energy: -331.767450300201 gnorm: 0.000347053004 xtb: 6.5.1 (b24c23e)
Cu          33.50737072095864        0.05170489859495       -0.10262024852950
C           30.10577914486319        0.16631703299517       -0.30029974011909
C           30.75079891368139        1.34217877330591        0.05262620208288
C           30.08759105982843        2.57708634107619        0.36036098739375
C           31.05207195196954        3.47286817405673        0.68654891367127
C           32.31475724897138        2.79498412372123        0.57247458376337
N           32.10013329727600        1.50202916813459        0.18956455962356
C           33.55866853248993        3.36364053270926        0.85131457674603
C           34.78269492778752        2.69831868315974        0.76690810351728
C           36.05999331974524        3.29725836115895        1.02977908694807
C           36.99929573959410        2.34331387921095        0.80808143776654
N           34.96564599786894        1.39542404742034        0.38512183558200
C           36.30662739096550        1.15893816361988        0.39835264311895
C           36.93607257643860       -0.04913729500855        0.05179519898556
C           36.26865945821772       -1.22583941546882       -0.32892442515922
C           36.92425019518497       -2.44027270409547       -0.71045223648069
C           35.95287740154482       -3.34240794015453       -1.00098528511928
C           34.69358439935097       -2.68412334320015       -0.79952498247792
C           33.44501881498366       -3.27312107313809       -1.00973221169683
C           33.42154465368887       -4.70933913378819       -1.38622971673146
C           32.89998720940730       -5.10998114413570       -2.61426263758186
C           32.87726676752297       -6.45620239943285       -2.96777469417312
C           32.29983367188683       -6.87532353196981       -4.29296152789270
C           33.37601183142836       -7.40250368469033       -2.07967210995176
C           33.89913507531966       -7.01791357881269       -0.84724023097737
C           34.44852071901525       -8.05446364858935        0.09548729521428
C           33.92203560312620       -5.67074392958551       -0.50774076385579
C           32.21858378784631       -2.61560029286058       -0.89472744072817
C           30.93047909398931       -3.22737227673373       -1.07832020946638
C           29.99874725894593       -2.26024232247892       -0.88934364864689
C           30.70740691058496       -1.05247600192253       -0.57604911140187
N           32.05105463835989       -1.29721298971455       -0.58089709305374
N           34.91874253145003       -1.39320667474569       -0.40061470333669
C           33.58091476261521        4.78913303457769        1.27005424421054
C           33.17998598811238        5.78727976482279        0.38356828973267
C           33.19904223624695        7.12330845890681        0.76915342456302
C           32.79181907321824        8.20002345120795       -0.20030397687964
C           33.61892951413652        7.45656163439558        2.05362112151372
C           34.02011256985882        6.47107720021659        2.95036156140252
C           34.44725756538011        6.83899073037866        4.34573015016220
C           34.00108316220879        5.13847362655947        2.55204934787604
H           29.02236126243101        0.19966710277510       -0.35243500209188
H           29.01918315493342        2.72363170150229        0.33345210431232
H           30.92744996474589        4.50040863932640        0.98850236809925
H           36.21477265210967        4.31908026620741        1.33632018668598
H           38.06846932377307        2.42675805574884        0.91520849327084
H           37.99259240893974       -2.57554797007026       -0.75804300511880
H           36.07418910162937       -4.35879736078958       -1.33915763012258
H           32.52525335067583       -4.36249813860834       -3.30504089311709
H           32.60726051618627       -7.88885158018540       -4.55026835694142
H           31.20876107089809       -6.84834382526112       -4.24894963291388
H           32.62151464404851       -6.19752942393239       -5.08456327922570
H           33.35860038393410       -8.45377547204613       -2.34840478922798
H           34.56292394474951       -7.64706044933379        1.09989233182858
H           33.78939453185671       -8.92235021996459        0.14005832335365
H           35.42755450708182       -8.39213319919230       -0.25157146739820
H           34.31605970877975       -5.35896683874218        0.45342221423947
H           30.76681492291855       -4.26732810777321       -1.31108358019728
H           28.92479255011990       -2.34511802460035       -0.94534101729766
H           32.86559290290941        5.51554034528000       -0.61823432729112
H           32.31935669013436        9.03296267722712        0.32103940450067
H           32.09822470821861        7.81032840009887       -0.94558267149517
H           33.67243089609563        8.58222294846364       -0.72176341673715
H           33.63348851177503        8.49775336617993        2.35927121035673
H           33.58016957099127        6.84119707016361        5.01033288024467
H           34.89284095234064        7.83376869216389        4.36644469650806
H           35.16929031564322        6.11986496561718        4.73309483543141
H           34.30072305469228        4.36025914958660        3.24548430076722
Cu          55.30681780715081        0.02865804777465       -0.08208943804465
C           58.70480126329188        0.18025218950637       -0.23785863724081
C           58.06299678984002       -0.50173161796429       -1.26083890609810
C           58.72999096971596       -1.16117485840272       -2.34710601447402
C           57.76805754584181       -1.73471710034254       -3.11179464211100
C           56.50275940663236       -1.42468482538768       -2.50328145688910
N           56.71379949206279       -0.67663210927223       -1.38044069025600
C           55.26061644168978       -1.85918046965718       -2.96971768350874
C           54.03584274419710       -1.59138344571666       -2.35532168305856
C           52.75611137381608       -2.00630308795076       -2.85762324487137
C           51.81710617248431       -1.51816486199384       -2.00846721698342
N           53.85550142360629       -0.85695179927716       -1.21415740209707
C           52.51394405114012       -0.79518854504268       -0.98634015324206
C           51.88722129137643       -0.09107650884421        0.05205855805243
C           52.54481439476207        0.64485057809093        1.04826053316909
C           51.88093279334338        1.36400842403087        2.09449306966943
C           52.84808065400684        1.90891792980101        2.87499381478911
C           54.11174642383867        1.52388385510123        2.31190570090483
C           55.35880906876869        1.88860513420910        2.82420166245253
C           55.37655840748803        2.66605286550207        4.08922326344532
C           55.90931706036649        3.95283518880787        4.12191022750521
C           55.92445838595683        4.68231074326833        5.30735833075941
C           56.51607374527401        6.06598854971601        5.33121858147564
C           55.40505459284584        4.11315399664184        6.46466674538082
C           54.86995563456683        2.82720293870624        6.44870912965481
C           54.29581524632778        2.23385488269351        7.70704955655949
C           54.85674259467793        2.11000413147126        5.25860516181016
C           56.58687954315857        1.57653775210683        2.23720039929558
C           57.87437568769695        1.93007764642092        2.77105526606737
C           58.80780378144939        1.46097082147600        1.90634817480100
C           58.10129951346708        0.80408140217826        0.84393208175380
N           56.75727959849820        0.88245067541871        1.07339156350381
N           53.89403246769271        0.76656277570456        1.19263435865288
C           55.23808088676027       -2.65983158975737       -4.22077854855175
C           55.65467025858418       -2.09082094914376       -5.42338318265631
C           55.62710631640203       -2.82931203627274       -6.60135481341011
C           56.04989870526988       -2.20212924310256       -7.90246852459687
C           55.18201956265194       -4.14769506629446       -6.56942583270669
C           54.76576487784042       -4.73053447481444       -5.37637921055975
C           54.30875149398813       -6.16419903924557       -5.34897397221923
C           54.79484775352837       -3.98112978440793       -4.20490541834540
H           59.78847422712043        0.21858655325459       -0.28139551131812
H           59.79910031632185       -1.18125746526249       -2.48967350953661
H           57.89608774907452       -2.32738415717149       -4.00339057972186
H           52.59992432916280       -2.58523552522650       -3.75349007489580
H           50.74551001002678       -1.62487584050858       -2.06531094846849
H           50.81099466988855        1.43791274725823        2.20748370126549
H           52.72189058036368        2.52846796480589        3.74814323664762
H           56.29856741107644        4.39316708906734        3.21035936232974
H           56.18457289601745        6.61749497660725        6.21096790801726
H           57.60636190331476        6.00390548354464        5.35620694830942
H           56.23089570044042        6.62243774243779        4.43767483088845
H           55.41524107854239        4.67648046202990        7.39217336958001
H           54.18260235555783        1.15388501679407        7.61347342336630
H           54.93795214034512        2.44836866960184        8.56217163140216
H           53.31267175374177        2.66577748722333        7.90708677100529
H           54.45422051233664        1.10313496986836        5.23559715840615
H           58.03662337814874        2.46148734808470        3.69504870176158
H           59.88163888228098        1.53890575810964        1.97353694850029
H           55.98633188228854       -1.05828971634178       -5.43758775378733
H           56.52513710339998       -2.93829250444679       -8.55137556179678
H           56.74573136272719       -1.38078148802150       -7.73067334340088
H           55.17605995459076       -1.80483820642734       -8.42404138519427
H           55.15873225194444       -4.72770362717903       -7.48635885945908
H           55.16422839360406       -6.82346134950769       -5.18464235868021
H           53.84406364591729       -6.44167685077943       -6.29541102746055
H           53.59384173048329       -6.32867059175170       -4.54253068031296
H           54.48387131717525       -4.42805152472960       -3.26690980577313
C           38.34677189502901       -0.07600292501436        0.07682522949388
C           39.56337459807997       -0.08501422947666        0.08483806770682
C           49.25814337305044       -0.12735441945556        0.10393245553654
C           50.47263110729289       -0.11189057603398        0.08581918435532
Cu          44.41177167856559       -0.10871573079103        0.10149561403331
C           40.97428822693436       -0.09292084231708        0.09054384849173
C           41.62965627684245        1.14004403029508       -0.07318136378310
C           40.96143308837782        2.39553519918788       -0.24000256906085
C           41.92311418088208        3.34718430040636       -0.34568306346956
C           43.18878284977186        2.67709864460438       -0.25517221737961
N           42.97710634282820        1.33354710458902       -0.09317033155914
C           44.43082431994973        3.31325724462829       -0.28581753685163
C           45.66684211477585        2.67714178208997       -0.15807636011733
C           46.94132977937507        3.33442960881055       -0.22702874317636
C           47.89191291448873        2.37341960118440       -0.10713355128820
N           45.86059807878969        1.33147950804784       -0.00021048885994
C           47.20592606518353        1.12241662812921        0.02398970607734
C           47.84337935630838       -0.12407662086096        0.11130407677201
C           47.19381447353481       -1.36413216280729        0.19579967474693
C           47.86759669538937       -2.62158901429721        0.32613154216485
C           46.90755389461508       -3.57468252879501        0.43426181711643
C           45.63919643539902       -2.90604397136290        0.35831318650525
C           44.39627522746959       -3.53314384996611        0.46737622206794
C           44.39196147360427       -5.00925749381000        0.63381284444718
C           43.88593228760249       -5.58537224004535        1.79712995932193
C           43.88443231512689       -6.96764485436319        1.95865466419563
C           43.35501972036758       -7.57823989495188        3.22831675463545
C           44.39400506792320       -7.77283769585582        0.94566001081315
C           44.90092283511764       -7.21203682859645       -0.22393741506759
C           45.46262700618357       -8.09661975251120       -1.30418119657456
C           44.89848727865880       -5.83027715418193       -0.37349229792197
C           43.15981784472010       -2.88591664458259        0.43380622739514
C           41.88685495849272       -3.54472902587794        0.50593265762581
C           40.93500406881476       -2.58289453978952        0.40257058744131
C           41.61670721803345       -1.33240111536952        0.25422922027963
N           42.96208373494565       -1.53880667653116        0.28389582722849
N           45.84634639720932       -1.56125348252300        0.21074680282295
C           44.43884885617297        4.78602794342477       -0.48142308954373
C           44.92596482009707        5.62843680366263        0.51629492086819
C           44.93425507203878        7.00742487239638        0.33421354279012
C           45.47629970428179        7.91105255235194        1.40875825759959
C           44.45559128916964        7.54101334010594       -0.85852771425098
C           43.96650118064285        6.71264279908748       -1.86430118404442
C           43.46959760862450        7.29863358946462       -3.15837009568897
C           43.95993452590977        5.33572665122353       -1.66963053618250
H           39.89212137428734        2.52609670214003       -0.27207418111146
H           41.79087722733644        4.41046882003829       -0.46386264431671
H           47.08626646064658        4.39401572751068       -0.36253547152939
H           48.96392667230086        2.48986007727084       -0.11780009083383
H           48.93855571418380       -2.74703238199801        0.34396669894124
H           47.04261077533808       -4.63595235460262        0.56669218368794
H           43.50371761742323       -4.94726769210240        2.58646397687432
H           43.05440620183892       -8.61356069488330        3.06707499389513
H           44.12936416544130       -7.56355359258988        3.99873067347717
H           42.49826991717029       -7.01540158042471        3.60011436033014
H           44.39466668667723       -8.85139219880186        1.06580257219025
H           45.53193189013069       -7.56067157824036       -2.25072163071359
H           44.83829531682377       -8.97992021968291       -1.44350112006827
H           46.46438481052355       -8.43188979985378       -1.02614226848159
H           45.27680158477571       -5.38180385796190       -1.28562778019336
H           41.74289613842966       -4.60790819606270        0.61064779946240
H           39.86396518999302       -2.70306947143238        0.42166185680334
H           45.28371131474979        5.20172333116475        1.44698347640304
H           44.97889864113672        8.88098752324406        1.38860969935025
H           46.54501858474497        8.07414764214342        1.25126640753715
H           45.34312414494566        7.46566485164550        2.39484871739471
H           44.46050675028229        8.61629518766843       -1.00496165238572
H           43.02888920619350        8.28241875939385       -2.99514763899717
H           42.72436234850508        6.64926072086691       -3.61811122677223
H           44.30083053318173        7.41107702847962       -3.85828344133345
H           43.59207541682230        4.67888930609855       -2.45034036598150
