195
 energy: -329.736722842543 gnorm: 0.000457271757 xtb: 6.5.1 (b24c23e)
Zn          26.51364826629026        0.01403913328809        0.02542756026159
C           23.10638604925324        0.09680829448496        0.08877862087148
C           23.74217475415787        1.21603346306831       -0.43543865876478
C           23.07441481479210        2.36581277454919       -0.97692551414349
C           24.03842222643790        3.22883737900089       -1.38559198957112
C           25.30805763573731        2.62200757319374       -1.08609349292782
N           25.09280707946555        1.39922502431061       -0.52057755956154
C           26.56258924671233        3.18713172461163       -1.35199127531301
C           26.58456634224550        4.54608964678195       -1.94580861030464
C           27.17536546176224        4.76942703219275       -3.19197390371828
C           27.19627445917203        6.03470859366323       -3.75168351455789
C           26.63589044514211        7.11447206100158       -3.06468986795992
N           26.62006773907843        8.37476147421093       -3.63845955275671
C           26.03919902029405        6.89933775928270       -1.81989134612225
C           26.01481953824225        5.62894369382621       -1.27175955367170
C           27.79695071028955        2.57656383106967       -1.10251847106353
C           29.08078309515361        3.18448093053071       -1.31735316871304
C           30.02114631328138        2.27814252757024       -0.94619053486810
N           27.98261207121964        1.31914537417660       -0.59094784509863
C           29.32270425876641        1.11203714211488       -0.49250955235107
C           29.94642373194089       -0.06226574008430       -0.02257948620630
C           29.28485332558279       -1.21047468775338        0.45944468683183
C           29.94321666485654       -2.40908903560542        0.88727477239986
C           28.97410344707551       -3.27600305149672        1.27838871294667
C           27.71304814118379       -2.60994314381859        1.10464842117554
N           27.94010332046202       -1.35887960094021        0.59406610898145
C           26.46012661378229       -3.16371701478520        1.39189578341005
C           26.43641599729021       -4.52573547178757        1.97829466756235
C           27.06201389585718       -4.78682559523114        3.19992457845168
C           27.03904737960396       -6.05486364245418        3.75324363436089
C           26.39733380760878       -7.10017133384608        3.08431268134103
N           26.33775308123564       -8.36114429752674        3.65353805881981
C           25.76526184498973       -6.84706345520002        1.86432780011220
C           25.78596969205230       -5.57393100688091        1.32248884398202
C           25.22549343447681       -2.53726151018261        1.17356590564278
C           23.93996913408085       -3.08231312288992        1.52043640670088
C           23.00456956726466       -2.17094031339689        1.15223966934653
C           23.70659972554342       -1.05330226368279        0.58747957075213
N           25.04892433483145       -1.30294726078605        0.61984298968289
H           22.02114581015133        0.12346607849307        0.11029458272377
H           22.00380620459714        2.48318886674970       -1.04075061463068
H           23.90499537241195        4.18758218627608       -1.86068892308291
H           27.60477596824478        3.93493757643641       -3.73569153624062
H           27.64864431082462        6.19294144613678       -4.72467645232899
H           27.32968803292034        8.53210166509785       -4.33629224581493
H           26.51617957540767        9.13632586884422       -2.98695549593181
H           25.59949431459440        7.73299805882834       -1.28315711356538
H           25.56667587817342        5.47404184554352       -0.29625339246113
H           29.24165722271981        4.18336749011721       -1.68987002019442
H           31.09395899149870        2.38618237799166       -0.96767233619699
H           31.01042629689841       -2.56432534718269        0.87770386025712
H           29.10091493347844       -4.28400781450930        1.63929397941127
H           27.55385437624580       -3.97875149064885        3.73049904350281
H           27.51958402452460       -6.24196590261383        4.70740640053104
H           27.06435218938756       -8.55954293462717        4.32281823844133
H           26.16823902081638       -9.11255027960319        3.00405600062715
H           25.26217421133474       -7.65361172425496        1.34196838743004
H           25.30921018477395       -5.39045625553302        0.36567177684411
H           23.77771950374146       -4.03528391626319        1.99813917612356
H           21.93279039765278       -2.23562531645125        1.25784865674259
Zn          63.73901547331825       -0.01468324347406        0.02893656876067
C           67.14577184719367       -0.00028461411552        0.14348339217072
C           66.51027232384941       -1.05623680101301        0.78596361822389
C           67.17831650671319       -2.13963474830577        1.45016835418198
C           66.21455733100809       -2.95917592992807        1.94069911700169
C           64.94473721493480       -2.37912075692649        1.59285875337348
N           65.15970926614740       -1.23236975146181        0.88567489779453
C           63.69052690242203       -2.91787275226963        1.90973958046763
C           63.66878686041245       -4.16280350069791        2.71588030206852
C           63.08931245000170       -5.32918244335377        2.21047818026854
C           63.06808740735369       -6.49333786543470        2.95818017360889
C           63.61641292616013       -6.51136626223740        4.24304509127280
N           63.63169418833270       -7.68415294869652        4.97934391799828
C           64.20189782337293       -5.35056182308010        4.75450136533151
C           64.22695594519213       -4.19333468221286        3.99611592838914
C           62.45619630750376       -2.37761290759038        1.53145875580835
C           61.17222572349262       -2.89861669811288        1.91089392989134
C           60.23182759641072       -2.08990079515021        1.35853582990211
N           62.27051034124272       -1.25506555152146        0.76811749345780
C           60.93035878550887       -1.06232473383862        0.64459607140925
C           60.30665227820707       -0.01851721239074       -0.06951790371779
C           60.96777115090347        1.02212526071893       -0.75383514249105
C           60.30912491493263        2.04316634267197       -1.51334721393488
C           61.27797139244543        2.85039242260729       -2.01670820566853
C           62.53911566200054        2.33683281854395       -1.55862995582717
N           62.31240773054085        1.21751343507179       -0.80161646357285
C           63.79189805126866        2.88357562234268       -1.85951335868288
C           63.81546465787915        4.12631181680884       -2.66869442481178
C           63.19044388656775        5.28819182276906       -2.20908522285750
C           63.21352746704667        6.45128815736891       -2.95830486244765
C           63.85473739960723        6.47318050703042       -4.19940649158456
N           63.91464379620919        7.64560780396929       -4.93384419619620
C           64.48603939593053        5.31699176861349       -4.66482368591317
C           64.46529708610692        4.16066748802094       -3.90496313140624
C           65.02651411819450        2.35588966886023       -1.45751700018482
C           66.31175990331988        2.94775309928087       -1.71791746627828
C           67.24719209886307        2.13839986216473       -1.16022414016332
C           66.54544766840893        1.04916231975859       -0.54209250607631
N           65.20328490485882        1.21216936970107       -0.73498313370046
H           68.23088753839600        0.00530595126027        0.18097995350728
H           68.24898474169254       -2.25411716714451        1.51812175888927
H           66.34816889704248       -3.88327762648527        2.48006252394335
H           62.66902586381979       -5.32577545054135        1.21060197861590
H           62.62466749070123       -7.39518084156944        2.55021584624910
H           62.92852880679074       -8.35744313173096        4.71951963041599
H           63.72521510299001       -7.55909674028508        5.97474653761513
H           64.63229060161461       -5.35916539864867        5.75004498827873
H           64.66641296478822       -3.29129900744195        4.40799632960802
H           61.01123930692961       -3.76394550498418        2.53358988174361
H           59.15891291229032       -2.17159919349164        1.43093745858135
H           59.24193091132540        2.12060050326017       -1.64843306041388
H           61.15096102313672        3.71021486493044       -2.65463281174048
H           62.69896152571152        5.28244412039954       -1.24221716174529
H           62.73353072956019        7.34951916954283       -2.58529153566245
H           63.18863122394478        8.31324106152076       -4.72794668181239
H           64.08399121897055        7.52123559969086       -5.91924120340866
H           64.98862032510601        5.32866430650684       -5.62594769083505
H           64.94158974902579        3.26225973542926       -4.28239127151673
H           66.47370461555772        3.87275461366046       -2.24785233098045
H           68.31879671768269        2.26355540359300       -1.15382658922466
C           31.35040162204492       -0.08747819560644       -0.03441739504092
C           32.57543518596636       -0.09898082820346       -0.04299693066241
C           33.91746970382087       -0.10510651327375       -0.04852780873971
C           35.14867920998837       -0.10291734334800       -0.05310721111753
C           36.48601550822490       -0.09649915544439       -0.05482795958684
C           37.71721745170498       -0.08855752643886       -0.05762684902383
C           39.05906205280267       -0.07858944490182       -0.05161372245759
C           40.28428856156767       -0.06771553129306       -0.04473770426675
C           49.96931416605929       -0.01723655658310       -0.00965004237629
C           51.19435054604894       -0.01364419774263       -0.03242085374916
C           52.53610283820422       -0.01409758263681       -0.05600068743349
C           53.76705098914928       -0.01252430482156       -0.07924259106737
C           55.10434092580780       -0.01235187025367       -0.09619418171735
C           56.33541322345925       -0.01058014802722       -0.10746108657570
C           57.67753717403916       -0.01179113199847       -0.10689097333178
C           58.90257877574945       -0.01437638194633       -0.09666817816870
Zn          45.12619027480717       -0.03307000319600        0.00616679574854
C           41.68800319949309       -0.05965328508681       -0.03866702615213
C           42.32677958114275        1.14612740722194       -0.39499251023745
C           41.64288200394481        2.36032745061919       -0.72670595374278
C           42.59482826937133        3.29683838958721       -0.97385957649332
C           43.87018624751153        2.65874835366422       -0.80701298366130
N           43.66968545338401        1.35170745278552       -0.44919596645005
C           45.11304121496918        3.28518195388555       -0.95478999367884
C           45.10997288114761        4.71492671363321       -1.35189924420590
C           44.56092125463069        5.11783734006677       -2.57131970898889
C           44.56278810519320        6.45042205769426       -2.94452176351816
C           45.11402093323562        7.41510479688689       -2.09739434684756
N           45.07355394049435        8.75486897614635       -2.44462515882390
C           45.65339505022548        7.02181226024027       -0.87002419067010
C           45.65671646907696        5.68595735754545       -0.50950460187438
C           46.36082039922567        2.68165117023299       -0.75916181442149
C           47.63038839403799        3.31689109397529       -0.97390878136302
C           48.59048210511808        2.39507256071231       -0.70378376860700
N           46.57256003952951        1.38499872177947       -0.37232578091663
C           47.91711795203778        1.18781111709163       -0.32840530915784
C           48.56573216482293       -0.01670523709852        0.01382174371779
C           47.92674920115199       -1.22325649013264        0.36700371516087
C           48.60970555934816       -2.44268969292377        0.68002235344043
C           47.65731672826291       -3.37082916564694        0.95607674307957
C           46.38293356727761       -2.72322476937009        0.82179790188798
N           46.58401350916645       -1.41955980344303        0.45305801142168
C           45.13971323544416       -3.33897889726827        1.01075520777381
C           45.14681808966728       -4.75423856475037        1.45435677644158
C           44.55462591561255       -5.75126874769201        0.67528893232262
C           44.56276195376253       -7.07243223725597        1.08653293364636
C           45.16543522511877       -7.42661848203302        2.29626498656147
N           45.13239934175566       -8.73924242757433        2.73514375619646
C           45.74961132950219       -6.43401129824614        3.08718795580809
C           45.74470455715592       -5.11674091501990        2.66395900860044
C           43.89162293017478       -2.73452312626855        0.81854734930998
C           42.62144805303492       -3.35874451643891        1.06047442752333
C           41.66223326049931       -2.44606971055302        0.75818132224048
C           42.33652180083840       -1.25287164396128        0.34203969452714
N           43.68092737053436       -1.44984387968244        0.39206773616229
H           40.57119625599181        2.47742765311810       -0.75506723997894
H           42.44640847863418        4.33279280176023       -1.23275664238520
H           44.14696028585927        4.37290642363480       -3.24217916526054
H           44.14023556929114        6.75000605089131       -3.89742464764933
H           44.98978112818897        8.93571269955657       -3.43224999100282
H           45.75557929991705        9.33451293319876       -1.98189863916743
H           46.07023953750957        7.76772917152564       -0.20203703547175
H           46.07032204078913        5.38915105792688        0.44820730321888
H           47.76928985370702        4.33347187561137       -1.30499518671280
H           49.66097604516222        2.51386564177467       -0.75829474372279
H           49.68079971297030       -2.56839633617878        0.67935907705927
H           47.80485652246918       -4.40781018673212        1.21151397988539
H           44.10120126110783       -5.48766938452573       -0.27407677146190
H           44.10485489489376       -7.83799911046764        0.46962036709262
H           45.84316719344797       -8.98122303779122        3.40694106653073
H           45.00716375362811       -9.42734967797936        2.00989051843602
H           46.20722677678483       -6.70068439699262        4.03364378416578
H           46.19169107027882       -4.35076818429634        3.28835302383781
H           42.48066654886367       -4.36166810289742        1.42993763607646
H           40.59172173650914       -2.56112765328264        0.81943869784629
