191
 energy: -380.558332299132 gnorm: 0.000754762592 xtb: 6.5.1 (b24c23e)
Ni          29.75631509416109       -0.00380739992229       -0.07897677356403
C           26.36736489713782       -0.00646497284605       -0.23004194627035
C           27.01767419457486       -1.22260523993444       -0.24861293172552
C           26.34090867960467       -2.48300090161706       -0.28630873037869
C           27.29817894557492       -3.43455991955778       -0.38344888306373
C           28.55883055626757       -2.75177597552736       -0.42524783562620
N           28.37819412386222       -1.39795566407375       -0.29732570108979
C           29.77912613552074       -3.38332384977082       -0.63131134167783
C           29.78910994167092       -4.84544393543602       -0.86485614800812
C           30.47042978113940       -5.69573255636583        0.01108626477004
C           30.47370318231015       -7.06300752422533       -0.19731880710882
C           29.79477812654958       -7.58395961391973       -1.29511405489153
N           29.79358698531290       -9.01936574769291       -1.51804442424703
O           29.18754325669997       -9.43464428236126       -2.47221946418432
O           30.39795040440474       -9.70562414781574       -0.73455156000040
C           29.11575244591875       -6.75408868140752       -2.18264814200056
C           29.11403168005477       -5.38885143172338       -1.96209603887015
C           30.98818411097420       -2.69908340085844       -0.64103358266022
C           32.24881410241338       -3.31142904415696       -0.93370534688038
C           33.19445581505358       -2.35503550411808       -0.77258489601977
N           31.15734097458041       -1.36642710248688       -0.34382860659631
C           32.50961003176724       -1.16210782900884       -0.38777651205256
C           33.16882513094238        0.01521837985072       -0.02383046273572
C           32.48555909488574        1.17882236105665        0.34047413008174
C           33.14424747802325        2.36734842267496        0.78029588476428
C           32.18089454206116        3.30301811478105        0.95741739288042
C           30.93690961556593        2.68590499978237        0.60852418208840
N           31.13235317715953        1.36647710877630        0.26972848639000
C           29.72190186898644        3.35804204438220        0.57091379300256
C           29.69928559714711        4.80871931588838        0.86639726581059
C           28.95350369222881        5.29444313030720        1.94480446563382
C           28.92115996383524        6.64847711898095        2.22401327163160
C           29.63679976904634        7.52556897462574        1.41397467106202
N           29.60103157867957        8.94952584213010        1.69872819728630
O           28.93794647518654        9.31396304342024        2.63558679163212
O           30.23523481797997        9.67796207516039        0.97949036748788
C           30.38435859365772        7.06259031264264        0.33495491646203
C           30.41449027511792        5.70592566444415        0.06763892854551
C           28.52305074616118        2.72884677112946        0.25770098886224
C           27.26825756024494        3.41203783898831        0.13180731538097
C           26.32964911649572        2.46653682762617       -0.10515328895817
C           27.01161622942993        1.20850623367958       -0.12836699470561
N           28.36089010423279        1.38188346052671        0.05772189437601
H           25.28517092983002       -0.00627591077106       -0.28540802994080
H           25.27050133661713       -2.60343178042289       -0.23907965610520
H           27.17466153797501       -4.50459274946502       -0.42120629547179
H           30.98520129327444       -5.27833356208579        0.86857839906824
H           30.99205997021511       -7.73098207939092        0.48004692536921
H           28.59962212831794       -7.18418530996692       -3.03252609754120
H           28.59846144610019       -4.73074771340142       -2.65173934210796
H           32.38228327638146       -4.33852381289120       -1.23154369991323
H           34.26223052153232       -2.43553063547392       -0.89624589873899
H           34.20760985897918        2.45760768618552        0.93212097309976
H           32.29283797807688        4.31978719492032        1.29651652260091
H           28.40864080619524        4.59970167040541        2.57332038994025
H           28.35014146107758        7.03387380760456        3.06012303164938
H           30.92892843035412        7.76669349695980       -0.28264517859839
H           30.98183008667929        5.33416656377109       -0.77758716981930
H           27.13668412031806        4.47896041429235        0.20931197976304
H           25.26820785917111        2.58901458226244       -0.24949615590153
Ni          61.76188808886532        0.06034650953538       -0.03781706301591
C           65.14995742707339        0.10972078705217       -0.18051761744546
C           64.50289864682281        1.24430808236650        0.26264399121664
C           65.18242559970730        2.42484373661347        0.70145898548282
C           64.22778127567452        3.34848038085022        0.96021725633555
C           62.96584285004733        2.73577992461961        0.66131213936285
N           63.14297369586724        1.43075238657526        0.27765950842767
C           61.74774300433719        3.40351665967638        0.69837367450236
C           61.74275126442520        4.84855057666110        1.02046123653575
C           61.05458986119973        5.31983766917806        2.14250490906959
C           61.05726078004346        6.66740314091271        2.45371534440072
C           61.74942195561530        7.55255642846248        1.63214692120752
N           61.75777522814528        8.96848272022902        1.95568592513885
O           62.37431362220531        9.70311359923472        1.22739958158295
O           61.14674140895717        9.32085623318600        2.93173686439647
C           62.43532739045988        7.10466048213849        0.50675160865887
C           62.43072893332887        5.75454449332841        0.20739656346703
C           60.53716537130033        2.77486918486423        0.43417401199707
C           59.27825402353930        3.45486379310502        0.38395645583595
C           58.33036856083746        2.50806033150046        0.18316637167193
N           60.36458788875474        1.42639617846977        0.22249969789523
C           59.01198612291025        1.25525796266789        0.10657084964096
C           58.35023706804246        0.02685632491308        0.02300601466124
C           59.03236261992766       -1.19061040766498       -0.06059130033427
C           58.37406692370821       -2.45796734840502       -0.07706505446732
C           59.33519596265843       -3.39307184467451       -0.26970854741231
C           60.57711099597007       -2.69032768994918       -0.38670505220802
N           60.38375844546827       -1.33909278206540       -0.21187714183304
C           61.78680197379167       -3.29884430086615       -0.69665774431881
C           61.80400387243263       -4.75329047989177       -0.97260921008292
C           62.56747813302440       -5.61164603366772       -0.17548416626590
C           62.59563461534820       -6.97020299292182       -0.43236851467745
C           61.85788683784963       -7.47437624664160       -1.49968231092939
N           61.89071695646592       -8.89934660351299       -1.77941966740475
O           62.57107541891903       -9.59169928911768       -1.06673449504497
O           61.23625150484717       -9.30049142906543       -2.70730896286393
C           61.09155714031625       -6.63697981696043       -2.30528633606858
C           61.06573051682986       -5.28058373297358       -2.03633323740466
C           62.98463379817152       -2.59779591661587       -0.76848217351000
C           64.23471085311321       -3.18228492114327       -1.15930713511453
C           65.17695155427643       -2.22096135047310       -1.02004868055158
C           64.50138995602802       -1.04921556981757       -0.55219336484249
N           63.15221247622273       -1.27717548712294       -0.43893883664122
H           66.23225388768208        0.12690793272023       -0.23094028743128
H           66.25277688221928        2.51474422268369        0.79513560491178
H           64.35418173232748        4.35529815951682        1.32350317105016
H           60.53013158781144        4.61864609776500        2.78110072866415
H           60.53375576670417        7.04133785057245        3.32540733185429
H           62.96189331551793        7.81478611696766       -0.11947032410541
H           62.95159375660023        5.39442936586320       -0.67212085355364
H           59.14713626360628        4.52000199677736        0.48250969376412
H           57.26293266397759        2.63075175159364        0.09676574261827
H           57.31245007442608       -2.59822397135745        0.04636637357495
H           59.22319557612480       -4.46349334912041       -0.32527214298671
H           63.12976502222108       -5.20735221088242        0.65814233484398
H           63.18048201233393       -7.64387451669199        0.18227829812514
H           60.52954780891727       -7.05414811543823       -3.13223931998290
H           60.48385160886513       -4.61611622813323       -2.66434837587965
H           64.36091775715919       -4.19674512905286       -1.50081821975027
H           66.23682407708814       -2.28105192546470       -1.20860503594334
C           38.37090825733605        0.04204145913785        0.01030810588522
C           37.14306337451418        0.04055688199767        0.00190250463997
C           35.79767657642214        0.03358233996208       -0.00579635373864
C           34.57443172433040        0.02542055007696       -0.01208553660114
C           39.71620814263294        0.04129365160484        0.01328181454701
C           40.93966705023573        0.03761665972948        0.01227985193889
C           54.37648892084647       -0.01082221938707        0.03553520742961
C           53.14846270356661       -0.01861682861309        0.03483331911239
C           51.80342678481290       -0.02268193833679        0.02987810495720
C           50.57982788338163       -0.02214195478303        0.02057479458039
C           55.72162012423877        0.00063311218254        0.03371099869088
C           56.94503803734100        0.01324307715079        0.03140262643830
Ni          45.76007346341942        0.00690561244552       -0.00994862231568
C           42.34453206332226        0.02996277816389        0.00784953846361
C           43.01226974957921       -1.17640899145804        0.23925243447434
C           42.33991476909001       -2.40309381302385        0.52586145532409
C           43.28833669467834       -3.37069675283189        0.54627411538042
C           44.53668677977870       -2.73062436925608        0.26243235251496
N           44.36105327449391       -1.37336996356875        0.12295411028930
C           45.73715404915158       -3.40849344476476        0.08865959463806
C           45.72251632091985       -4.88837884110306        0.12320050987093
C           46.46869622239078       -5.58118188684318        1.08128843155859
C           46.45149674966396       -6.96354492765141        1.12022851590721
C           45.68574624151029       -7.65938429134062        0.18922265215951
N           45.66451515440948       -9.11157403787376        0.22534226285029
O           44.98629765278999       -9.67952569124719       -0.59160786419738
O           46.32809143513028       -9.65744008409779        1.06887551700034
C           44.93870829411914       -6.98880846861473       -0.77499662691371
C           44.95820126190068       -5.60627370836847       -0.80175015900796
C           46.94820765924005       -2.75825122071052       -0.11264091737165
C           48.19102593806712       -3.42962601814260       -0.34339406825270
C           49.15325491210780       -2.47556106899218       -0.35830741635039
N           47.14168606859437       -1.39752100770381       -0.04441077162176
C           48.49440874528583       -1.22574062003111       -0.15162369294959
C           49.17530477794986       -0.01519669480642        0.01055390080137
C           48.50753302973222        1.20501925149286        0.15394060225936
C           49.18043159014267        2.44956098709089        0.34759486637686
C           48.23232619784749        3.41633524762092        0.29659398466992
C           46.98341870643860        2.75722670239807        0.06370144718195
N           47.15884696391385        1.39323111620270        0.02372928360935
C           45.78221411199885        3.42082856939676       -0.15273841044797
C           45.79327429718872        4.89970714798876       -0.22091459128481
C           46.54381655574534        5.55447509401681       -1.20207867293975
C           46.55328080080101        6.93554505661173       -1.27420809202386
C           45.81085440521684        7.66832848468139       -0.35265635599820
N           45.81846834677641        9.11938339440512       -0.42298738556964
O           46.48123130616356        9.63176627735346       -1.28796850941214
O           45.16206521928918        9.71995757209623        0.38835526979680
C           45.06081356142022        7.03587101379999        0.63469215539907
C           45.05292675033832        5.65419031642439        0.69416934063558
C           44.57067691732897        2.75811086955525       -0.30427913095545
C           43.32749440131849        3.41202838601110       -0.57921589858797
C           42.36562970366894        2.45891033007149       -0.52892579222812
C           43.02498668758644        1.22640678657762       -0.23710019955183
N           44.37775487025391        1.40554256718936       -0.14223348454996
H           41.27797464353269       -2.49668881116987        0.68528899191460
H           43.16338647051034       -4.42327431870291        0.74080214362375
H           47.05068907309627       -5.02727300678798        1.80860634588698
H           47.02061046155392       -7.50944637612298        1.86306997417806
H           44.35414689546310       -7.55412224523030       -1.49082700722390
H           44.38948576299706       -5.07211681634995       -1.55393524997259
H           48.30357764736996       -4.49282740365401       -0.47884922123345
H           50.21613476676695       -2.59217274293199       -0.49475595085789
H           50.24263806061136        2.55455859096307        0.49786464171133
H           48.35758891435910        4.48063648568699        0.41053258652109
H           47.10854081011139        4.97165357694006       -1.92036989453543
H           47.12571521045710        7.45221741977194       -2.03518118465971
H           44.49548207493483        7.62963872576253        1.34288951570863
H           44.48191820948141        5.14952038628457        1.46474184750172
H           43.21450132272842        4.46354437365695       -0.78639953035221
H           41.30271504485214        2.56560014273007       -0.67297357581914
