177
 energy: -316.987642172137 gnorm: 0.000987919429 xtb: 6.5.1 (b24c23e)
Fe          19.64238235583465       -0.01487072979064        0.00350873356851
C           16.25328594581465       -0.03658878978108        0.04537174650278
C           16.90536614306543       -1.25217326513117        0.06288714999042
C           16.22875123058161       -2.51353436069686        0.10161381148070
C           17.18637461289372       -3.46458102834386        0.20448213280186
C           18.44832042642483       -2.78243162050436        0.22578253568154
N           18.26285739054319       -1.43044194277583        0.11856398571970
C           19.66728210722262       -3.41525224539237        0.44149046975891
C           19.67578749722007       -4.88690124262963        0.61885469466998
C           20.03480627224473       -5.47011207714932        1.83277951687138
C           20.02526552731155       -6.85162900405314        1.94610240470241
N           19.69165012687778       -7.65838671826822        0.94401148665080
C           19.34960705546675       -7.10953934231779       -0.21709688928017
C           19.32392048838188       -5.73962386380863       -0.42628740505012
C           20.87329391711187       -2.73253844468026        0.50306342186401
C           22.13979388841380       -3.36456363853171        0.72610704166699
C           23.08358885443570       -2.39960514908755        0.61409945590541
N           21.04610469898035       -1.38898608671718        0.26753180424909
C           22.39343641565157       -1.18498597618917        0.31052824558438
C           23.05179381903255        0.01111207027217        0.00100354040623
C           22.37355754350044        1.19368715932874       -0.31720370447347
C           23.04065266240968        2.40619319913625       -0.67516557279944
C           22.08041276620088        3.35226453126979       -0.80931802236165
C           20.82969246207405        2.71505535024213       -0.52195092888433
N           21.02406227119130        1.37931255766668       -0.26130945752715
C           19.61365013326876        3.38138428341101       -0.47345248942255
C           19.60216882838422        4.84908386386449       -0.67073642691640
C           18.91700273462539        5.43387622057659       -1.73491557014636
C           18.93714745903300        6.81271872563355       -1.87448818360837
N           19.57858056166058        7.61687447043196       -1.03275624763399
C           20.23222316977119        7.06740238374036       -0.01423526404805
C           20.27567901674760        5.69966997844992        0.20520791542528
C           18.40594463371589        2.73254335965061       -0.24039923613566
C           17.14155441331248        3.40251066499523       -0.13909187001627
C           16.19950775993385        2.44085694359523        0.00381213310145
C           16.88979006287384        1.18640300149875        0.00045387933242
N           18.24154988975011        1.37958495254943       -0.11595998157717
H           15.16938241957930       -0.04292926318558        0.06848354349220
H           15.15775972825127       -2.63429888231121        0.06485975248691
H           17.06206111298107       -4.53277689994515        0.27754473515600
H           20.30340988896027       -4.85077334471057        2.68022135505553
H           20.29709829513009       -7.33015327628759        2.88247776629695
H           19.08443926510658       -7.79486856596001       -1.01688958785402
H           19.04815096599457       -5.33594768846308       -1.39317326843399
H           22.27981096388105       -4.41386259002516        0.92815351394194
H           24.15360438756875       -2.48951351064791        0.71009110221694
H           24.10649528275464        2.50481814057491       -0.80361357822915
H           22.19743532384611        4.38829387365536       -1.08227494570986
H           18.38922776138098        4.81657124805715       -2.45203386840704
H           18.41523749626682        7.29147561833602       -2.69780463330809
H           20.74410732407057        7.75045583229888        0.65730874812102
H           20.81231502400859        5.29612186934611        1.05554414017534
H           17.00597789992070        4.47137406262944       -0.17043481706410
H           15.13139817178535        2.55087362618886        0.10388476658977
Fe          56.74367143104431        0.03476326537680        0.00047824297301
C           60.13774736212570        0.07004192549058        0.05689333040656
C           59.48767974805060        1.24868194134304       -0.24352951575866
C           60.16996859578564        2.47721102565614       -0.51811385424847
C           59.21455696819073        3.41030232638621       -0.73737004173401
C           57.94935961133380        2.74789457542087       -0.60121903916046
N           58.12998308477033        1.42542701506473       -0.29881351419291
C           56.72380655748844        3.39561100707957       -0.70665344599277
C           56.71770292945645        4.84539857216251       -1.01522004766308
C           56.25049749208031        5.78003855984714       -0.09253911302576
C           56.26874158498244        7.12511687552172       -0.42677551011792
N           56.70876961482325        7.57448444636894       -1.59768687804963
C           57.15327312664402        6.68905505897829       -2.48369261970507
C           57.18064017719893        5.32494059718824       -2.23956850074436
C           55.50860208859999        2.75117326759852       -0.53084556650682
C           54.23824403119352        3.40246320410051       -0.65445065753670
C           53.29239450079134        2.45451475080465       -0.45345886740829
N           55.33618514713024        1.41307375615338       -0.26454981565060
C           53.98675373134507        1.22705211273881       -0.21860160701383
C           53.32822333235571        0.01030989879327       -0.00369407793076
C           54.00366001793313       -1.19889919065102        0.20050332938121
C           53.32759633888284       -2.44637430443379        0.37409497297359
C           54.28684525571533       -3.38556616752243        0.55203375990042
C           55.54639154909973       -2.70456081354306        0.49869722599884
N           55.35519913011173       -1.36344713652343        0.26243418706954
C           56.77025496586435       -3.33497172094607        0.66585025851336
C           56.78489490858969       -4.78938254667605        0.94930451903243
C           57.35749691773093       -5.69429943294787        0.05670006256450
C           57.34635887977905       -7.04544600694029        0.36560792372325
N           56.81678898504961       -7.52825356996485        1.48506309073846
C           56.27151569661741       -6.67154854152545        2.34242499782429
C           56.22887012315699       -5.30418277417322        2.11954659678056
C           57.98593075292108       -2.66479982373762        0.58744857291753
C           59.25727785250741       -3.29174149723265        0.80784501153048
C           60.19942438862354       -2.33477547250421        0.63968584261674
C           59.50247251166618       -1.12459259597443        0.32374809572405
N           58.14838069014491       -1.33472604026612        0.30944109469621
H           61.22154195385606        0.08319779347500        0.08377564112941
H           61.24220755834220        2.59163359785296       -0.53013608519573
H           59.34125923306426        4.45732285965266       -0.95978734335142
H           55.89172034556819        5.45935223160154        0.87820174452280
H           55.91431562927372        7.87309332500038        0.27633914997677
H           57.50399683499612        7.08704982257843       -3.43140207529119
H           57.54332010948300        4.63816616486650       -2.99497280778296
H           54.09885858225458        4.44773310957575       -0.87665229170269
H           52.21955788731575        2.55930191029749       -0.46823090995520
H           52.25712604283468       -2.57202091759237        0.35291246842013
H           54.16359988796815       -4.44601048508109        0.69923546910859
H           57.79219501662802       -5.34619891544559       -0.87266394924369
H           57.78178647389209       -7.77057761691084       -0.31547716603244
H           55.84979537950517       -7.09627898569368        3.24872844144439
H           55.78322465573752       -4.64139667854776        2.85159932598378
H           59.39655838569836       -4.32885486846566        1.06619316653228
H           61.27141263817504       -2.41966641964045        0.72074359383596
C           24.45264138800101        0.02346507619827        0.00211715662172
C           25.67880118247990        0.03074906001294        0.00495904928886
C           27.01832660560063        0.04028167683556        0.00481176857276
C           28.25099818635344        0.04643538045727        0.00397474656871
C           29.58551595248006        0.04762016987411        0.00317316963629
C           30.81828077843922        0.04700570955123       -0.00074150620156
C           32.15734919870841        0.04316162359844       -0.00449309043395
C           33.38399306551169        0.03620391106336       -0.01062227156565
C           42.99682612306221       -0.00387964982831        0.00757906950628
C           44.22379634850697       -0.00306462420070        0.00988680660173
C           45.56227776835201       -0.00356764953986        0.01316841163897
C           46.79547922498914       -0.00316134395291        0.01383553998988
C           48.12936289323370       -0.01130120348049        0.00921173342256
C           49.36242220139877       -0.00846356607227        0.00790389536315
C           50.70132303080543       -0.00428870027177       -0.00014424605643
C           51.92789025658826        0.00122977275825       -0.00404043668180
Fe          38.19080351361155        0.00215543373810       -0.01718800892378
C           34.78312530784988        0.02514887148559       -0.01498758163982
C           35.45184307568364       -0.74020878519245        0.95001477607015
C           34.78385353593129       -1.48006805566946        1.97380503094837
C           35.73509633017161       -2.20696966223625        2.61017348623757
C           36.97889709470287       -1.91384392676841        1.96361807003859
N           36.79444285936228       -0.97242304608155        0.98113529384609
C           38.17690746584455       -2.56322853427770        2.23793205098227
C           38.17119564646204       -3.67070548226823        3.21956311600459
C           37.39325557428632       -4.81088143066345        3.02149736023614
C           37.42258324707776       -5.82115072112234        3.96983782356356
N           38.15761642500004       -5.75566321320304        5.07517723639906
C           38.89959407703055       -4.67091706890682        5.27307812801503
C           38.94241098458262       -3.61210156014013        4.37987076882473
C           39.38019208912801       -2.21594831197225        1.63559209929355
C           40.62004964830195       -2.89839200159671        1.85511138985845
C           41.57973549734523       -2.17548746727771        1.22681399706262
N           39.57566948129119       -1.12200963330566        0.82850924588922
C           40.92068683672292       -1.06326945093234        0.61830767226213
C           41.59839903562766       -0.00283332823268        0.00057889297205
C           40.92929801068111        1.05487925582703       -0.63095687882016
C           41.59715573077600        2.15997620934356       -1.24311633275760
C           40.64748694207732        2.87201313690183       -1.89845819146682
C           39.40444423900126        2.19268906817736       -1.68779518847289
N           39.58757833987505        1.10980285750845       -0.86359339008426
C           38.20831618849184        2.53697604879870       -2.30646064328989
C           38.22075395920918        3.62709566053895       -3.30724609156002
C           39.00220771856224        3.53978164094256       -4.45897227568772
C           38.97904738455028        4.58271988782110       -5.37133684209755
N           38.24689418943346        5.67856603647933       -5.19976233433481
C           37.50258718604254        5.77159755678071       -4.10264363173265
C           37.45363324547758        4.77888785318284       -3.13665830189533
C           37.00260480872793        1.90528858489972       -2.02527138034434
C           35.76124652674784        2.20954647355371       -2.67159253628856
C           34.79997917097053        1.51149625799268       -2.01819983952715
C           35.45981475975047        0.77399482594756       -0.98746132219640
N           36.80614463546448        0.98069488137114       -1.02880999161823
H           33.72394721466371       -1.44125826259985        2.16714508734549
H           35.61458858877112       -2.87984877110205        3.44340148930106
H           36.78727067449810       -4.91205898942325        2.12911589826611
H           36.82950643242089       -6.72095051952031        3.83575045362119
H           39.48671848758660       -4.64616081128725        6.18633924494879
H           39.55309408389209       -2.74167582388604        4.58798337341485
H           40.73229109581633       -3.81158122644806        2.41642187275753
H           42.63996118782325       -2.36400543699314        1.17532839629830
H           42.65618497249665        2.35061887998937       -1.17679644317814
H           40.76818467173856        3.77697924843507       -2.47122850581197
H           39.60594803299055        2.65968710470090       -4.64529217110886
H           39.57454708540996        4.53562456060141       -6.27823749868358
H           36.91823836084574        6.67993849200071       -3.99006414219787
H           36.84123344327861        4.90296683017370       -2.25158388082773
H           35.64876966591559        2.87100651879907       -3.51500093179962
H           33.73850088704963        1.48935178904858       -2.20537011075160
