124
 energy: -223.853553371806 gnorm: 0.000360999629 xtb: 6.5.1 (b24c23e)
Co          13.04211127945189       -0.02972469401225       -0.12433266601567
C            9.67840961739011       -0.07812051629114       -0.35374766442230
C           10.36161121777303       -1.26900313539213       -0.47352548340445
C            9.72007255993798       -2.53240672103751       -0.67519041117870
C           10.66780911831939       -3.48159564568889       -0.49287653164804
C           11.89318218181451       -2.79610471376687       -0.20367746695525
N           11.70197147199498       -1.43862953063569       -0.23045402676113
C           13.06781504326559       -3.42704217908423        0.18646980404612
C           13.07658206706729       -4.90146645189397        0.34717354431210
C           12.88397742060870       -5.73717933510135       -0.75249678951892
C           12.89566429927819       -7.11559903720253       -0.60341952989757
C           13.09556864527779       -7.67281082572129        0.65742624724250
O           13.11064859140142       -9.01706730907929        0.84880908611397
C           13.28825839145715       -6.84771860631630        1.76397962534030
C           13.28205731971252       -5.47323032051383        1.60446362141307
C           14.24128106917439       -2.72212816395069        0.40358337647340
C           15.49599113950293       -3.34250339336140        0.70756234593437
C           16.44538824771575       -2.38376354520101        0.59000151353986
N           14.41873023967020       -1.37795258565243        0.15956980837888
C           15.76832075384281       -1.17928296125931        0.22766130753284
C           16.43239862529687        0.00583158836327       -0.10316996952725
C           15.73994813153539        1.19181234143405       -0.36180399628037
C           16.38604100883193        2.42894647723100       -0.66484599243326
C           15.42541597370827        3.38452155334016       -0.63957655241411
C           14.19430768120597        2.72509176638769       -0.32551353023307
N           14.39316053644673        1.36902303555806       -0.20856132892006
C           12.99275198875704        3.38367434312225       -0.10520284947295
C           12.97832365775073        4.86401842100585       -0.09611837689610
C           13.75748335200702        5.57552248824543        0.81989485151835
C           13.74800186833606        6.95878255588766        0.83440707413515
C           12.96069756233794        7.65456052789797       -0.08150182069050
O           12.97834815975164        9.01140718578867       -0.04301173371585
C           12.18420953444010        6.95885545092586       -1.00549754064039
C           12.19320269378559        5.57289311334152       -1.00648078990957
C           11.80166474044429        2.69086075005173        0.06722036967395
C           10.52860049912940        3.31704536029517        0.27508890298863
C            9.59199928785384        2.34552973221293        0.16500042163258
C           10.29544501451625        1.12357942428915       -0.07848144973044
N           11.65103119620422        1.33443451396940       -0.07637772865912
H            8.59867579975252       -0.09305853638112       -0.44520502421540
H            8.67219690186351       -2.65674220246403       -0.89777600756390
H           10.55570415068364       -4.55291716420604       -0.53228318629522
H           12.74200252372920       -5.30475218376862       -1.73664703613675
H           12.75198406204369       -7.76176228433863       -1.46277641935485
H           12.96681744352371       -9.49275678656159        0.01972105827806
H           13.44044123897596       -7.29485817790486        2.73852548738582
H           13.42253102148196       -4.83059205568205        2.46633308504436
H           15.62524534626831       -4.38547151009694        0.94642597400519
H           17.51172100366539       -2.46987975395566        0.72329219560724
H           17.44146161871920        2.53734531734414       -0.85633226675913
H           15.52879998378304        4.44153017507358       -0.82338876087956
H           14.36179087769713        5.03433891278538        1.53928246514267
H           14.34433166521995        7.51268541533880        1.54883770047667
H           12.39798308337601        9.39093521806765       -0.71648721312882
H           11.57834715172647        7.50439693826997       -1.72105011868480
H           11.60021005012941        5.03339328777556       -1.73661680481888
H           10.38339343611519        4.36668734398021        0.47290514870745
H            8.51947896790383        2.42803720033964        0.24233627794204
Co          31.55872869706251        0.00894433984429       -0.12750145034887
C           34.92272834930596        0.02644657724786       -0.35675869082079
C           34.23900926607320        1.18694792475932       -0.64848582864358
C           34.87982210695564        2.40846112817414       -1.03017629412376
C           33.93111703211484        3.37316150563092       -0.98826564410314
C           32.70603129368706        2.73566194271978       -0.60381165121498
N           32.89823307224157        1.38874884896309       -0.43396495126720
C           31.53106874488212        3.41542256160928       -0.30802870830480
C           31.52131863441328        4.89762656976941       -0.36096397154433
C           31.71183336858106        5.56661583883689       -1.56965923524208
C           31.69898000332260        6.95213267353985       -1.62035677679884
C           31.50008433356079        7.68473250135046       -0.45247956392370
O           31.48394515472637        9.04252902426820       -0.45643885473052
C           31.30956306497429        7.02723011781712        0.76149610218679
C           31.31687144153707        5.64408812622459        0.80130631853745
C           30.35835093845265        2.74832230884534        0.00932200584508
C           29.10351201248645        3.40504243534362        0.22299623711414
C           28.15471207961234        2.43879792157826        0.24482811911404
N           30.18161062128731        1.38292149393290       -0.03959376492079
C           28.83228499737346        1.19523749534996        0.05778543675800
C           28.16848640103760       -0.02527475486855       -0.09975761784373
C           28.86138615665498       -1.23564678226296       -0.18747077425833
C           28.21612119307340       -2.50373593688917       -0.31117279876540
C           29.17738114526919       -3.44532519754575       -0.14997318631418
C           30.40804367335488       -2.74705264865843        0.06693042883224
N           30.20834739517490       -1.38832611362106       -0.01093340288562
C           31.60978643865774       -3.36652344981135        0.38019891540674
C           31.62515761443900       -4.83025076777351        0.60118669776937
C           30.84406702421398       -5.40415974752923        1.60764969546100
C           30.85448626140852       -6.77107630496186        1.82005954157445
C           31.64483412829093       -7.58995732657225        1.01530231830684
O           31.62796027691670       -8.92732299690454        1.24758907452825
C           32.42346744267495       -7.03283222927107        0.00334643868753
C           32.41337182685884       -5.66131999664947       -0.19615956057972
C           32.80024875834506       -2.65523116851758        0.45334225814052
C           34.07326225417953       -3.24397775426235        0.75136478720836
C           35.00949870023873       -2.29738195510338        0.50517069550749
C           34.30584385833921       -1.12363017318942        0.08749912701544
N           32.95037347157026       -1.33323626354636        0.11721108998189
H           36.00262739203508        0.02894253435900       -0.44745046885282
H           35.92786556636452        2.50025475359294       -1.26730216517908
H           34.04237806245801        4.42759356202361       -1.18230993846441
H           31.85306500235299        4.99720816659075       -2.48153983140960
H           31.84092785044541        7.46812192691915       -2.56389853928334
H           31.62637405218761        9.39406541750508       -1.34553473890514
H           31.15813690943315        7.60974431884550        1.66181835602834
H           31.17808255120030        5.13198400283522        1.74683411281970
H           28.97378180506480        4.47135434987734        0.31065720438799
H           27.08846385791542        2.54241763063461        0.36575037409427
H           27.16076088846740       -2.63902639273556       -0.48508371457945
H           29.07465330087104       -4.51780790576047       -0.18109449528269
H           30.23749594269846       -4.76624858320708        2.24068272651552
H           30.25659078127732       -7.21764234088058        2.60487089240940
H           32.21086011834254       -9.39874365019705        0.63732610530831
H           33.03185561579664       -7.67448316115138       -0.62501904813131
H           33.00796352802706       -5.23127719648893       -0.99448442111808
H           34.21882412787755       -4.25424639378240        1.09796223698299
H           36.08189086291377       -2.36698514269736        0.59580143541489
C           17.83393786774853        0.00961527555152       -0.14087205168113
C           19.05912345492211        0.00418647891414       -0.16552949668059
C           20.40042001954868       -0.00308425568531       -0.18365000250009
C           21.63212600672511       -0.01277408452753       -0.19014782468598
C           22.96873191823063       -0.02261429760507       -0.18913659192319
C           24.20044549319230       -0.03095360096397       -0.18045251506240
C           25.54175458732217       -0.03312391447382       -0.16164790568898
C           26.76691968949349       -0.03475137702463       -0.13492248163014
