185
 energy: -327.042795410365 gnorm: 0.000752578733 xtb: 6.5.1 (b24c23e)
Zn          29.69858285966398       -0.19525651081681       -0.13371841949092
C           26.27959052519570       -0.13675653830384       -0.10829562765077
C           26.92013407945773        0.73390361707504        0.76484168373956
C           26.26213659112447        1.64183068076662        1.66228758202058
C           27.23425398565304        2.30959568709606        2.33434507922265
C           28.49378358461459        1.81491119904533        1.85328543524107
N           28.27426603283749        0.86464787601596        0.90700337965069
C           29.75692212902491        2.25018615143108        2.29641259593186
C           29.77936454692138        3.25529152434333        3.28870649085129
C           29.79440597398950        4.12112124975774        4.13910436023738
C           29.81310190646513        5.13158307903056        5.12717116797779
C           31.01920911971375        5.63973834104771        5.62431564854091
C           30.98248708112345        6.62878017201361        6.59081830128026
N           29.84951724577094        7.12817863744862        7.07865744861084
C           28.69870479897566        6.65019639389169        6.61158790209043
C           28.62593437476877        5.66227384054240        5.64599214653275
C           30.99746588988280        1.77240620629554        1.83685490535343
C           32.27513304904218        2.22611823644292        2.30356809231515
C           33.21852069048828        1.52668839950640        1.62071411249883
N           31.17933012974353        0.81216276137615        0.88537109187252
C           32.52267765073078        0.64207898470133        0.73292400766963
C           33.14218908787806       -0.25696527933444       -0.15678183578683
C           32.47827046075547       -1.13179645353752       -1.03891871421094
C           33.12994899792842       -2.03909962355068       -1.93729608320434
C           32.15306697294874       -2.70304941111635       -2.60819292852772
C           30.89895595883387       -2.20481067730273       -2.12355400290403
N           31.12784335439093       -1.25316368975773       -1.17358506100322
C           29.63624619443206       -2.63886082896323       -2.56584844908781
C           29.61355756610022       -3.64190610894573       -3.56018496306077
C           29.59871617059085       -4.50957591996863       -4.40872429604301
C           29.59121994359236       -5.51935999960752       -5.39758843717318
C           30.78541760803841       -6.03807386781290       -5.91256300228441
C           30.72582708908070       -7.02737306344562       -6.87756222566821
N           29.58135333700352       -7.51758105519912       -7.34759465198710
C           28.44188964221999       -7.02944175520209       -6.86360784273945
C           28.39197375409257       -6.04001786783964       -5.89805348094547
C           28.39551431306304       -2.16158423283407       -2.10366378967140
C           27.11277520439603       -2.61269926631578       -2.56570540065725
C           26.17430688499003       -1.91280689255861       -1.87861904225775
C           26.87648179066933       -1.02847256300447       -0.99109630857638
N           28.22299642807467       -1.20523214396924       -1.15374938861241
H           25.19405788052811       -0.11816309727313       -0.09991017993209
H           25.19265308556674        1.74621156143472        1.75719208807625
H           27.11989358061366        3.07052317188742        3.09021021147090
H           31.96498634571078        5.26179867023884        5.25510252665035
H           31.90325865684906        7.04106267509025        6.99360197191924
H           27.79327996592876        7.07950473455421        7.03104882138413
H           27.66665376635468        5.30219272761332        5.29408981373809
H           32.42302988021182        2.98300832183501        3.05746166532532
H           34.29131574691338        1.59762437374682        1.70457396936011
H           34.19816379361061       -2.14857076045364       -2.03620178695015
H           32.26390527539549       -3.46340243815342       -3.36492667394503
H           31.73977657559404       -5.66783927254999       -5.55786646643618
H           31.63688169976616       -7.44780394253129       -7.29377847457346
H           27.52664817052298       -7.45163901426416       -7.26868808085464
H           27.44121054100858       -5.67166228025104       -5.53197274407319
H           26.96139830852575       -3.36871708463220       -3.31999577289112
H           25.10055824743493       -1.98059865052914       -1.95717636962487
Zn          61.83222171893935       -0.24540678707693       -0.16259088707851
C           65.25148248992883       -0.28552436195783       -0.18882637411784
C           64.61666966939293       -1.48324979682184       -0.49414122240879
C           65.28032349913711       -2.71596389837265       -0.81475272725462
C           64.31236022731683       -3.63920581313160       -1.04571396671080
C           63.04998664199215       -2.97801767504496       -0.86816330260399
N           63.26346634809843       -1.67767038523160       -0.53623058576772
C           61.78959842976902       -3.58660416376615       -1.01537925983984
C           61.76876126133123       -4.95564098074899       -1.36265339021796
C           61.74132581806393       -6.13170206282796       -1.66123499329943
C           61.70340013373899       -7.50217849403637       -2.00463980214822
C           60.48638333182556       -8.17899767636138       -2.15011909471322
C           60.50119158644987       -9.52046006220480       -2.48735006114121
N           61.62288403909663      -10.20928965829400       -2.68326641894226
C           62.78379513990917       -9.57313192190968       -2.54725736948459
C           62.87844219368742       -8.23416353985038       -2.21260448723113
C           60.54650103616880       -2.95047693704606       -0.84669696800489
C           59.27175501644293       -3.58762470494939       -1.00417945865892
C           58.32421509877484       -2.64508047625739       -0.76134859489011
N           60.35880768469455       -1.64135194366928       -0.51257284905672
C           59.01463399767255       -1.42701039610725       -0.45370196242439
C           58.38857780057847       -0.20340224977821       -0.14390087189562
C           59.04608465782869        1.00381520850600        0.16220068951922
C           58.38868883363624        2.23742109237478        0.47970677418434
C           59.36151080472058        3.15605601852320        0.71496735540177
C           60.61880307044264        2.48871993385166        0.54174269561623
N           60.39577777406641        1.18524285294712        0.20740827569088
C           61.87916419961414        3.09418154769754        0.69408711382055
C           61.90165638296359        4.46272858245327        1.04334698148355
C           61.92821838593358        5.63856694689170        1.34298000463220
C           61.96249631949803        7.00880043081259        1.68789507983376
C           60.78487775418201        7.73959916906295        1.88566749056493
C           60.87510824891807        9.07868226198975        2.22108828597618
N           62.03413102716585        9.71607669254318        2.36730525521637
C           63.15818115487539        9.02838344105363        2.18130957729830
C           63.17741074574575        7.68692782932362        1.84414633749639
C           63.12272613784946        2.45609405533563        0.52662260145633
C           64.40282156598705        3.08779916486884        0.68439975296291
C           65.34552833647426        2.14290417966172        0.43731051352277
C           64.64880957302920        0.92607603280837        0.12662145551339
N           63.30117522966165        1.15159860042825        0.19035762576026
H           66.33709944765239       -0.29773150208908       -0.19747286871023
H           66.35041684304721       -2.84627049377043       -0.85484397705811
H           64.43095733582383       -4.67743723369166       -1.31301330152772
H           59.54928903834827       -7.65653135538165       -1.99986649256088
H           59.57162403014641      -10.06977961373974       -2.60641352911851
H           63.67944558030565      -10.16465499254369       -2.71438565519882
H           63.84533728048601       -7.75592811669368       -2.11232270203163
H           59.12804108022636       -4.62351558554389       -1.26745951544269
H           57.25203510335710       -2.75731734680959       -0.78653775858104
H           57.31962106843504        2.37432758267627        0.51651475988378
H           59.24633839852139        4.19448065458138        0.98243224964759
H           59.81940583507595        7.26038413140742        1.77679397773626
H           59.97740629533768        9.66930501088681        2.38022448338329
H           64.08610123560457        9.57869894558167        2.30844111565128
H           64.11641394025507        7.16558004505357        1.70203885075278
H           64.55005698802812        4.12268266665641        0.95038846488145
H           66.41883069855433        2.24867627515797        0.46029838710179
C           38.34385789524992       -0.39677987306409       -0.23126456903664
C           37.11707884876378       -0.35526035033763       -0.20884613081772
C           35.77189784051792       -0.31906918558269       -0.18688788266038
C           34.54922226467233       -0.28605644744932       -0.16738187101856
C           39.68882248409194       -0.43439821488171       -0.25897646691410
C           40.91157035531442       -0.46698194537073       -0.28296416820307
C           54.41303486823065       -0.23714254386498       -0.16907499432506
C           53.18609853981573       -0.27830630235607       -0.19149766886860
C           51.84162406584755       -0.32534931533051       -0.21791128401399
C           50.61953445036085       -0.37594021910931       -0.24364103373417
C           55.75830654460281       -0.21069194162970       -0.15241893515293
C           56.98151640158088       -0.19224059129822       -0.14469164437698
Zn          45.76654968896464       -0.49573120977528       -0.31562089736491
C           42.31820326355756       -0.49011108812951       -0.30260878919528
C           42.95837481802515        0.22284081502574       -1.33518456439342
C           42.28270956925519        0.94029519900243       -2.37565211532692
C           43.24183655378861        1.47973159192153       -3.17259072669271
C           44.50806928172775        1.09887078077246       -2.61951026123389
N           44.30526633234347        0.33592342311258       -1.50745849970035
C           45.75958270960334        1.46971004752942       -3.14324877462037
C           45.75982846136031        2.25407188032890       -4.31843549607281
C           45.76713637354339        2.91815132552444       -5.33428767024929
C           45.78071343191214        3.68760877975636       -6.51986802061040
C           46.98538341047676        4.09850758183257       -7.10269951470906
C           46.94670447713921        4.84683512252635       -8.26538871531225
N           45.81300101098790        5.20039171761113       -8.86585187024245
C           44.66362063553930        4.81357530831129       -8.31822834227683
C           44.59283998408284        4.06382011460753       -7.15787248060493
C           47.01322112394637        1.13270805443179       -2.60163041872505
C           48.27629522040819        1.54831302107296       -3.13665940611141
C           49.23867969972846        1.02841525575831       -2.33075252068524
N           47.22123309527923        0.37020823072021       -1.49027764401838
C           48.56832539794885        0.28839874312000       -1.30282812048006
C           49.21393670129968       -0.42299481393526       -0.27253865521453
C           48.57435976549341       -1.18332324828641        0.72600236640677
C           49.25037268231125       -1.92716457126831        1.74742475945532
C           48.29198292888481       -2.52592802450718        2.50175912227683
C           47.02571809924039       -2.14588583700437        1.94807648045198
N           47.22794691084968       -1.33327453821853        0.87170672439371
C           45.77451321893420       -2.54609558430853        2.45084380411978
C           45.77864570112917       -3.41227809146390        3.56707345934291
C           45.78508942180829       -4.16837380182414        4.51642479823034
C           45.79399695688701       -5.05537920291665        5.61692644027930
C           44.60234497602558       -5.52298023523754        6.18360457423901
C           44.66677462646147       -6.39513799754730        7.25544288921243
N           45.81350650001739       -6.81761139679340        7.78208046960222
C           46.95070962016184       -6.37768135448419        7.24913094358799
C           46.99578248887171       -5.50468082118286        6.17703777907055
C           44.52024440444573       -2.16218907384443        1.94311448641239
C           43.25690950428992       -2.55707811509882        2.49301590494348
C           42.29373712494417       -1.97589482498755        1.73109068301251
C           42.96391778815217       -1.22830513107236        0.70847162277702
N           44.31167439705400       -1.35729398866155        0.86217417535037
H           41.21183184124555        1.01474929928698       -2.47827895514560
H           43.11128773010668        2.08469564399482       -4.05577072405196
H           47.93154754225516        3.83252947883659       -6.64700033508633
H           47.86635486069183        5.17917419755349       -8.73846066979177
H           43.75772969012306        5.11903355259267       -8.83392877937052
H           43.63470318922003        3.76982131769756       -6.74677493649368
H           48.40296984334657        2.16100171509714       -4.01506148223138
H           50.30854373173880        1.12972053077766       -2.41995038461174
H           50.32099291063209       -1.98160236889296        1.86437518475836
H           48.42322694252821       -3.16617973996607        3.35959725388831
H           43.64621456642187       -5.20507790401214        5.78565454031521
H           43.75779082509067       -6.77328818193092        7.71450003123681
H           47.86795081480555       -6.74187769594771        7.70303418111973
H           47.94469016077571       -5.17215483969529        5.77379133909791
H           43.13082556154191       -3.19473512520506        3.35355724052358
H           41.22345778397470       -2.04521410367730        1.84314046006551
