282
 energy: -455.912416690973 gnorm: 0.000387934780 xtb: 6.5.1 (b24c23e)
Cu          46.40537624001482        0.03882742990256       -0.10034605152520
C           43.00079262170873        0.11944700370807       -0.21634566801498
C           43.64287649642703        1.30741221435463        0.09949713275955
C           42.97521698761293        2.53937640322189        0.40857353252989
C           43.93929511254125        3.45475584375250        0.67658840365370
C           45.20595589139452        2.79200357079031        0.52440737223693
N           44.99429208921769        1.48755064755396        0.18090702673305
C           46.45295750413936        3.38826756135078        0.72342530261815
C           47.68113317798156        2.73554501447446        0.60738517646903
C           48.96225575877283        3.36419277622264        0.76177029362510
C           49.90288097166432        2.40758963526002        0.55609949708268
N           47.86229333583333        1.41243996127705        0.30090304973294
C           49.20453301990306        1.19047446763093        0.26985279951999
C           49.83280267438113       -0.03724659607645       -0.00356433892847
C           49.16711408232030       -1.23884926340239       -0.30248675682636
C           49.82783160925977       -2.47392578833025       -0.60063644034142
C           48.85865187741908       -3.38964402418316       -0.85437494168659
C           47.59738912607684       -2.72052266363780       -0.70626211262951
C           46.35030571835834       -3.31495640259104       -0.90505338037485
C           46.32535615507309       -4.76001375566135       -1.24817248496429
C           45.82822062907471       -5.18201394250902       -2.47861993895097
C           45.80129752526219       -6.53570640482939       -2.80421786032872
C           45.25657508348670       -6.97417470808508       -4.13695607545331
C           46.27104075436529       -7.46637422884628       -1.88519477662807
C           46.76985403496571       -7.05972364808379       -0.64912582290333
C           47.27592383673699       -8.08486720364290        0.32957471187418
C           46.79721850492441       -5.70625619180955       -0.33766148751620
C           45.12287074986124       -2.65619169668077       -0.80624195858375
C           43.83652106190248       -3.27618635125183       -0.97320589968445
C           42.90133928800314       -2.31251148197465       -0.78372884192377
C           43.60647120159758       -1.09757060552791       -0.49085252416372
N           44.95143182614169       -1.33474674099724       -0.50814293505132
N           47.81890444721326       -1.40961291589252       -0.37478552888919
C           46.47350305611749        4.82834554459922        1.08699468948061
C           45.99079112157956        5.78603684439699        0.19567203889937
C           46.00621874007176        7.13469933597696        0.53223564448847
C           45.50732605013232        8.17036327380258       -0.43906008609638
C           46.50639459664071        7.52300518613781        1.77239868305684
C           46.99117658534434        6.57959480601628        2.67217279005671
C           47.50951751979648        7.00404173809269        4.01978175022541
C           46.97358513962334        5.23275568935597        2.32309117834182
H           41.91610404791194        0.14179340657483       -0.24082422195330
H           41.90463223648875        2.67111907952044        0.42188552784776
H           43.81175521026311        4.48647220550970        0.96254443656877
H           49.11745851651999        4.40707516466471        0.98638669772446
H           50.97597925392564        2.50859262322984        0.58870272613916
H           50.89726491548997       -2.61130947212665       -0.61748038133719
H           48.98238477001132       -4.42445533978810       -1.13007466971561
H           45.47459130767753       -4.44639030603000       -3.19293956377136
H           45.43868608167799       -8.03561993647589       -4.30412231000122
H           44.17979964340519       -6.79728834481154       -4.17826861868446
H           45.72122371298195       -6.40679552479727       -4.94475922648648
H           46.25044684851556       -8.52319236750102       -2.13096806301428
H           47.55503658480487       -7.61920608634614        1.27453175037405
H           46.50931627354348       -8.83705687013093        0.52300961485627
H           48.15117301414639       -8.59440133390153       -0.07816536829278
H           47.17188429729864       -5.37693757217981        0.62534331056096
H           43.67676992319137       -4.31899753765760       -1.19570441232016
H           41.82737981537109       -2.40375456842917       -0.82834214806605
H           45.61584638900475        5.47171064454085       -0.77226073745277
H           44.95039601591681        8.95048255508066        0.08113989344131
H           44.86225534655011        7.71940857236410       -1.19309385310573
H           46.35187597414838        8.64059072142239       -0.94780964803068
H           46.51816552046176        8.57491188642700        2.03897746494349
H           46.71293697953607        6.93141612618536        4.76382888368209
H           47.85897843702178        8.03629987321263        3.99515653802014
H           48.32982897975675        6.36062578035977        4.33909319647183
H           47.33714268646583        4.48673884981249        3.02135767255630
Cu          86.81904696150579        0.05425433237241       -0.09822182798894
C           90.22053570141890        0.17469941492582       -0.23151194203297
C           89.57889358852212       -0.49334524580280       -1.26361299258272
C           90.24684120964609       -1.15616176995515       -2.34698892612414
C           89.28393233919974       -1.70673800518972       -3.12719378697236
C           88.01725558957135       -1.37660380633507       -2.53245464173642
N           88.22821567071180       -0.64439680595677       -1.39933056319182
C           86.77174196888146       -1.77159818701765       -3.02511863245202
C           85.54456131079928       -1.47936570034153       -2.42732242987993
C           84.26334973765617       -1.84370951159448       -2.96317468043025
C           83.32338496665666       -1.36274655417094       -2.11085301587231
N           85.36390530400399       -0.77635231956249       -1.26580125430997
C           84.02154858041985       -0.69596101109561       -1.05265025400716
C           83.39392051752498       -0.04292374747415        0.02081476189412
C           84.05722371039028        0.63755906005044        1.05489528037120
C           83.39590191727017        1.31145826552242        2.13200757400161
C           84.36465490597803        1.83660693370478        2.92398876514621
C           85.62665113582260        1.48250910122630        2.33791939221797
C           86.87366574073867        1.84721734051108        2.84907562681032
C           86.89423434218325        2.59863219813375        4.13005548457248
C           87.40583691738166        3.89268354203380        4.18383840569965
C           87.42486854050675        4.59648974922006        5.38557959494703
C           87.98345117770282        5.99341851881792        5.42558137390204
C           86.93048053690113        3.99357927189924        6.53594687340225
C           86.41650644965411        2.69862354432252        6.49860451860917
C           85.88419477975449        2.06624784537071        7.75626766980402
C           86.39936823373199        2.00779608749175        5.29383490020619
C           88.10111089002521        1.55469849762673        2.25072030861916
C           89.38817671567195        1.90344929172637        2.78846760153225
C           90.32204801039957        1.44157334143405        1.92038677514664
C           89.61580688718612        0.79614632017595        0.85082036112665
N           88.27142285875412        0.87580762516129        1.07808366680516
N           85.40603845065399        0.76042823050043        1.19527832952962
C           86.74988312118829       -2.56202417678503       -4.28246684478615
C           87.21732630320810       -2.00466585719448       -5.47208313084590
C           87.19652647010570       -2.73941683486965       -6.65223069684185
C           87.67838957010277       -2.12769932030960       -7.94007851317769
C           86.70523048427427       -4.04196075081454       -6.63657143267280
C           86.23604673715134       -4.61224980534916       -5.45759730348205
C           85.72713912227761       -6.02851689792893       -5.44481713525805
C           86.26028614513906       -3.86687124582492       -4.28315961002764
H           91.30480926539781        0.20234725708765       -0.26717319407115
H           91.31699900961537       -1.19429750604067       -2.47738524339669
H           89.41256633214412       -2.29508817270217       -4.02150850316088
H           84.10731749120778       -2.38606847569278       -3.88164473504943
H           82.25059869340819       -1.44113579078234       -2.18670009643478
H           82.32636912037717        1.37282660381033        2.25510120878137
H           84.24044719018481        2.42386267856831        3.81943759063940
H           87.77667823550706        4.35958363084043        3.27769305297170
H           87.85852827269942        6.43647350713884        6.41344118013347
H           89.04788402540375        5.97994278590844        5.18322914605257
H           87.48029430584904        6.62577961116933        4.69234459074309
H           86.94363684257142        4.53551543548559        7.47606423251666
H           85.58269232033251        1.03420466502681        7.57807511455086
H           86.64451261435248        2.07843757927351        8.53911211128192
H           85.01842117386693        2.62305482708071        8.12014749947967
H           86.01401729311971        0.99477791483897        5.25307529672368
H           89.54962295091676        2.42620465264166        3.71753890177420
H           91.39594604867723        1.51702093209864        1.98958880561524
H           87.58401667216597       -0.98396857483386       -5.47433444837168
H           88.19671314166169       -2.86853812436982       -8.54970370120792
H           88.35384063664623       -1.29426072337253       -7.74695343235087
H           86.82817815538530       -1.75248950612774       -8.51425297127520
H           86.68766931834951       -4.61862681441334       -7.55572514752202
H           86.54187573126542       -6.71378421625435       -5.19975591521367
H           85.33033466302818       -6.30797828957757       -6.42097995501205
H           84.94410423773742       -6.15224088207060       -4.69631931673841
H           85.90946388640465       -4.30532047609366       -3.35526023012064
C           52.46083349666462       -0.07390196663356        0.02346669475222
C           51.23911429654449       -0.06087694704674        0.01235568898621
C           53.81083966567454       -0.08424909286034        0.03129172414885
C           55.03280657656673       -0.08847425017117        0.03382732217992
C           65.93527405604057       -0.06201487262685       -0.01685898963446
C           64.71303318315778       -0.06144568763819       -0.01651998224759
C           67.28461466142491       -0.06449197324403       -0.01319308610178
C           68.50680036303088       -0.06890087815255       -0.00710578563191
C           79.41180354011209       -0.09628095205029        0.09837341977147
C           78.19087279043643       -0.10613660017775        0.10479644852393
C           80.76425525150476       -0.08379835972095        0.08113853768743
C           81.98468737370503       -0.06427083203545        0.05619422680172
Cu          59.87334917756986       -0.07551980326508        0.00769223489245
C           56.43868970965435       -0.08581864550256        0.03000418459172
C           57.08286603240827        1.16083521715980       -0.06518050378641
C           56.40233153820672        2.41983874985711       -0.10717399556872
C           57.35498016283959        3.37999399318059       -0.22456733668571
C           58.62399793718016        2.71123494407579       -0.26235526105517
N           58.42575286954417        1.36033975173404       -0.15355766791765
C           59.86051488105927        3.34908934098204       -0.38019768481175
C           61.10229520622626        2.71187657112604       -0.34662807114298
C           62.36698477279008        3.36480004167899       -0.52935063361049
C           63.32671707984667        2.41032054848180       -0.42387706839759
N           61.31042520562082        1.37250305749285       -0.14793129142216
C           62.65474044211329        1.16861354983214       -0.18625575097485
C           63.30785139729240       -0.06485530928499       -0.01160787275122
C           62.66404597912096       -1.30257501164590        0.16801632111430
C           63.34614421486445       -2.54088344459457        0.39437447577777
C           62.39354000370792       -3.50175272845420        0.50601557787375
C           61.12297388856513       -2.85597943896820        0.33949962484916
C           59.88574328079449       -3.50133237358147        0.38457728727529
C           59.89141605749273       -4.97663529055405        0.55259047277030
C           59.30820042795636       -5.55703135398208        1.67736877387118
C           59.31262331796461       -6.93851791909841        1.84288260638679
C           58.70327698942639       -7.55473109739600        3.07327782767832
C           59.90272159705857       -7.73928498676928        0.87071180025839
C           60.48592939327354       -7.17469859929407       -0.26086407499263
C           61.12836731473995       -8.05674140892367       -1.29732027038271
C           60.48046327354589       -5.79312882128370       -0.41276977312097
C           58.64385053813221       -2.87061232800365        0.28693821455260
C           57.37835366859195       -3.54665480695395        0.26312743294222
C           56.41861375882124       -2.59159001929643        0.16300577586977
C           57.09123431473683       -1.32852170285588        0.11686069621316
N           58.43628131998650       -1.52038577645820        0.18722574170192
N           61.32067228331337       -1.51465600264261        0.14347123580010
C           59.85329789853077        4.82298205301959       -0.56028969948923
C           60.44750122529259        5.65279166904453        0.38899299857458
C           60.43911561579246        7.03410398038201        0.22428243417721
C           61.09444317880061        7.92301151185596        1.24669356959376
C           59.83675980210342        7.58273020616109       -0.90354246400061
C           59.24015614015975        6.76726944908286       -1.86112601058395
C           58.60922375502896        7.37247368952899       -3.08607780478429
C           59.25000311691643        5.38840899056262       -1.68324266702309
H           55.33293211770800        2.54433620251996       -0.04646764969524
H           57.21538207421857        4.44804058144999       -0.26818589124038
H           62.49944283343884        4.41634845928136       -0.72632303613405
H           64.39561927500522        2.52601759361389       -0.50690636618565
H           64.41652948608953       -2.65041566345756        0.46567076905559
H           62.53460224021058       -4.55318253482374        0.69759295130765
H           58.86103273693896       -4.92172286270832        2.43413858001619
H           58.37543842378935       -8.57547170674672        2.87582521469266
H           59.44152155530037       -7.58378686893478        3.87801865211663
H           57.85019818746534       -6.96972229995792        3.41791423248325
H           59.90650428100381       -8.81760432467710        0.99295369921721
H           61.28736914820136       -7.51330123025183       -2.22859245269549
H           60.50548318581301       -8.92888398657186       -1.49993693554259
H           62.09671575360025       -8.41062182328135       -0.93662972458319
H           60.91948792609406       -5.34175657385073       -1.29579975454285
H           57.24569028436744       -4.61571011562903        0.30352265025856
H           55.34917798187354       -2.72169820884874        0.11615160227802
H           60.90170042523623        5.21446544022685        1.27094473095445
H           60.62230569538958        8.90541364948699        1.26783658393335
H           62.14969404986026        8.05815498385669        0.99832166135986
H           61.03475483944905        7.48044535385076        2.24125475609491
H           59.82843335989847        8.65968736131727       -1.03698077460278
H           58.14214820364662        8.32875246075923       -2.84876016045186
H           57.85588689596982        6.70574652382702       -3.50582830758799
H           59.37187950280319        7.54813346159705       -3.84824833096365
H           58.79825840623909        4.74173152544132       -2.42755158334914
Cu          73.34736662191425       -0.08850637493530        0.05487280131240
C           69.91202463142976       -0.07457678954298        0.00759017151510
C           70.56688367661647        1.16533924078521       -0.10076597021038
C           69.89556954402261        2.42734666636118       -0.18362592433592
C           70.85726828327516        3.38035384494536       -0.28257434079160
C           72.12290261176278        2.70398763777670       -0.26737701865307
N           71.91287182968591        1.35560504878432       -0.14992933977931
C           73.36633014394873        3.33414549562024       -0.34014800770560
C           74.60275291212363        2.69068310116647       -0.25945836101928
C           75.87609729407578        3.33888007295909       -0.39474653832044
C           76.82698889098650        2.37866097580569       -0.26826410634090
N           74.79715409621149        1.34949851129646       -0.06329687094021
C           76.14168194275248        1.13762324309252       -0.06462278117289
C           76.78172461325192       -0.10245031262765        0.09952896332264
C           76.12805201760821       -1.33677885933738        0.25087137311544
C           76.79768312048658       -2.58327495610792        0.47176575250436
C           75.83600016222553       -3.53608421540424        0.57113389233352
C           74.57197041832806       -2.87785307698966        0.40076935422414
C           73.32867896408901       -3.51236035920510        0.43945264825683
C           73.31898695332764       -4.98784447025794        0.60706919312347
C           72.72624840728851       -5.56333778631141        1.72959071406527
C           72.71004370190259       -6.94511053933496        1.89033460017577
C           72.08710354514326       -7.55620008127354        3.11647035339926
C           73.29032395019678       -7.75139593116519        0.91639260339371
C           73.88354805785526       -7.19176894492529       -0.21191193797764
C           74.51934356532198       -8.07519670629163       -1.25122925259886
C           73.89794241009284       -5.80937517899372       -0.35953319439913
C           72.09278362347180       -2.87204563557381        0.33257099443643
C           70.82188968300511       -3.53820628861132        0.30650288976276
C           69.87091701324960       -2.57693036824771        0.18623021271212
C           70.55416170678639       -1.31994226113837        0.12989948622451
N           71.89669928898782       -1.52129854058483        0.21634759524500
N           74.78229472035076       -1.53783826331530        0.21381049349532
C           73.37344320700035        4.80780206533725       -0.52345159646571
C           73.92366874096180        5.63718284042754        0.45228208378604
C           73.92643273519002        7.01816730744340        0.28573224391389
C           74.53317395127030        7.90660381405272        1.33805818676765
C           73.38050729652034        7.56678701908525       -0.87066595142678
C           72.82898579705083        6.75161637627407       -1.85484241574860
C           72.25967400601468        7.35404257046331       -3.11093498251206
C           72.82654092420299        5.37278249589059       -1.67478200085333
H           68.82546419690651        2.55830936279037       -0.16048562097947
H           70.72579255115308        4.44844603177078       -0.34569830682304
H           76.01969587524405        4.39166743821740       -0.57670664466594
H           77.89846266617617        2.48966997839477       -0.31677969232707
H           77.86660500014330       -2.70214792908582        0.55003115143752
H           75.96606897481327       -4.59008816728768        0.75632274975246
H           72.28637623082106       -4.92406377688344        2.48730245111462
H           71.75436440447825       -8.57504586339567        2.91750136621430
H           72.81831867533295       -7.58874091130813        3.92744061527229
H           71.23483746951702       -6.96540160024125        3.45326320207598
H           73.27713544015749       -8.83001971682534        1.03506654482135
H           74.55946799992714       -7.57274069244123       -2.21774359923821
H           73.96370881893573       -9.00705619403800       -1.36004134221588
H           75.54069807236874       -8.32286181120384       -0.95301957313887
H           74.34394635632199       -5.36194201388628       -1.24108631693796
H           70.67979704549043       -4.60551757316873        0.35860647448493
H           68.80096198905349       -2.69926065453583        0.13107056720007
H           74.33403565131265        5.19863475548037        1.35535135343814
H           74.06091540559922        8.88916198684315        1.33725430440733
H           75.59902857554241        8.04135728866123        1.13983989809109
H           74.42638614034163        7.46368291436708        2.32851919596271
H           73.38117164869431        8.64360747217484       -1.00531621607790
H           71.83845139224744        8.33985936165877       -2.91244658720862
H           71.48228011248446        6.71526859798395       -3.53054227339290
H           73.04803307130042        7.46616981541129       -3.85885999129221
H           72.40886707040055        4.72622403126239       -2.43883758914578
