288
 energy: -464.441280029291 gnorm: 0.000786558626 xtb: 6.5.1 (b24c23e)
Co          42.76725328978381        0.16852658953907       -0.63025434107638
C           39.71740690990789        0.53653215827112       -1.93327657721979
C           40.24802420936596        1.59605917134786       -1.22467201897563
C           39.53056805618759        2.80161752595262       -0.94091451137046
C           40.29084426412992        3.51183078952698       -0.07330847861872
C           41.50837519648018        2.77731646926054        0.11006928825476
N           41.45250830434958        1.58832237361619       -0.57055767279379
C           42.62960005808524        3.26095795870471        0.77425451096827
C           43.85465072118954        2.61300520694207        0.68855223952758
C           45.10291957976306        3.21909173758882        1.04157925344668
C           46.07947912457220        2.37040897216586        0.63628782614245
N           44.06985079022435        1.38318039870486        0.11489997424418
C           45.42492897587733        1.22279744063004        0.09264089885389
C           46.09572559538184        0.04335661894959       -0.25354871042205
C           45.40150184304033       -1.15472607725057       -0.46491698785889
C           46.02835492666743       -2.43837247946111       -0.48137596760863
C           45.03279211161199       -3.35638423941970       -0.54590151587757
C           43.80307485380661       -2.62759456740133       -0.63225234838616
C           42.58435764695717       -3.20974455965441       -0.94986131208507
C           42.49655238425498       -4.68959224340975       -0.97860716624079
C           42.31718347187370       -5.37291517686810       -2.17891722326227
C           42.25246795069079       -6.76331738186055       -2.19604154169366
C           42.04872327073437       -7.49315037508724       -3.49623315871420
C           42.36233998122622       -7.46532132933221       -1.00094685440373
C           42.54604274922330       -6.79551946538543        0.20665845416726
C           42.67712601412887       -7.57667080109028        1.48613208664372
C           42.61840126717222       -5.40796596379242        0.21079877127529
C           41.49899942466983       -2.44093986974864       -1.35447362887885
C           40.30864630385478       -2.96527322026149       -1.95682838011499
C           39.56505142907150       -1.90254473042317       -2.34766236611203
C           40.26426857166682       -0.73053610281287       -1.91513102562808
N           41.44983999703568       -1.07213468872776       -1.31658991566161
N           44.04617107723013       -1.27642991036532       -0.55640931552369
C           42.57121963305049        4.55985656853971        1.48513351658618
C           42.28174786219991        5.73992953246929        0.80266703438811
C           42.24250475780040        6.95489180025448        1.47953324448007
C           41.95457874484433        8.22814577857546        0.73080627151181
C           42.49680383717990        6.98262317575680        2.84693239525859
C           42.79597739728833        5.81334485536154        3.54081661648503
C           43.05669079749538        5.85574332109398        5.02220107625417
C           42.83489537975795        4.60532676517118        2.85382836635264
H           38.75864223659033        0.67411212470668       -2.41975402314364
H           38.55365881671575        3.03849847141373       -1.33169046402015
H           40.06337403194346        4.45674711031051        0.39267397920574
H           45.20721834249059        4.18731596418374        1.50367963889204
H           47.14839034578520        2.48430765344178        0.71914196145580
H           47.09250634380788       -2.60126411487916       -0.42205707922575
H           45.11326413802842       -4.43090480599521       -0.57572605977769
H           42.25228806719319       -4.81663218612473       -3.10753454474728
H           42.42095154720307       -8.51561159130989       -3.43144102453861
H           40.98400796716446       -7.53217915940747       -3.73742155157619
H           42.56113028338280       -6.98152144201069       -4.31143497100101
H           42.31036905384071       -8.54926286363402       -1.00798622199267
H           42.69000668189441       -6.91288734453310        2.35031336538216
H           41.84606132377943       -8.27553888657904        1.59294102274792
H           43.60345872862077       -8.15465872227990        1.47950169625967
H           42.75879457736941       -4.87187666173523        1.14298021121293
H           40.08738398463922       -4.01358670305369       -2.07496392711387
H           38.60856843779225       -1.89520296808792       -2.84588227602502
H           42.10959600142619        5.71141833543206       -0.26760888531821
H           41.52175239220016        8.97895297200019        1.39204802858464
H           41.26657044903418        8.04528889209796       -0.09496336924727
H           42.88109302003562        8.63253039148664        0.31675299526093
H           42.46704444116637        7.92806282865340        3.37880074312694
H           42.11154161612590        5.80219477310180        5.56728348564542
H           43.55571816073630        6.78418517743304        5.30109394078867
H           43.67637653537794        5.01434575934382        5.33243748278373
H           43.06027749241796        3.68566851291820        3.38258491981626
Co          90.49985651665223        0.42157157096094       -0.29511084988804
C           93.64109775925138        1.41977440959469       -0.88189457021550
C           93.11108660883568        0.44299102371561       -1.70018361489000
C           93.85309312214088       -0.22701714806729       -2.72422228894604
C           93.03978963602489       -1.18322635250473       -3.23222141994791
C           91.77589570180776       -1.04902582892115       -2.56830606080546
N           91.85038516303445       -0.08414488692983       -1.59453874617085
C           90.61175522351701       -1.69523315551588       -2.96009877601358
C           89.37901014504813       -1.35917222676390       -2.41559670346558
C           88.12404421150062       -1.75179954897127       -2.98124696850069
C           87.15708963425197       -1.14772956751226       -2.24840879318001
N           89.17847186077724       -0.53876094780905       -1.33288652481442
C           87.82101662753010       -0.42911812295025       -1.20708090812758
C           87.15287378902531        0.13702976732580       -0.11858205881489
C           87.84305839294151        0.59213171047392        1.00868650384917
C           87.21058588646376        0.90113104966720        2.25174968114851
C           88.19804555207720        1.22882548760450        3.12015415713041
C           89.42807324366807        1.17149207566915        2.38876617549312
C           90.62509165191872        1.68814688786400        2.86159448002384
C           90.69204769771243        2.15527325608786        4.26805058493035
C           90.81341797968889        3.51142008718615        4.56127479293084
C           90.87182615431205        3.94511349626213        5.88260562894034
C           91.01794530377330        5.41117227848754        6.18944028393237
C           90.81251975852753        3.00976698643558        6.90964786683894
C           90.68604865814997        1.65068704472543        6.63139754740420
C           90.60982134200893        0.65745374717180        7.75936193404913
C           90.62105559571010        1.22968264584185        5.30864410004757
C           91.71708346324156        1.87422214814469        2.02359276290901
C           92.89497531990307        2.61178019886426        2.37453538447014
C           93.69136653116585        2.62573304616804        1.27948635315186
C           93.03109987273461        1.83977763998140        0.28140851020436
N           91.81329487399726        1.40402336014834        0.73964286022146
N           89.19724587838238        0.74242787317524        1.10230066232926
C           90.64777338405028       -2.68551493473375       -4.06198380959325
C           91.06776781029963       -2.31986978204809       -5.33970358336511
C           91.08850493116553       -3.25417288175024       -6.37018009869232
C           91.51862669497832       -2.84596123975259       -7.75336969097371
C           90.68437846858204       -4.56072031006285       -6.11469313921787
C           90.25477843883080       -4.93913780525492       -4.84577744571166
C           89.83391246436999       -6.35907850056155       -4.57906917556620
C           90.23566257742257       -3.99632174677333       -3.82416709222241
H           94.63425102746731        1.79240921421153       -1.10407788155959
H           94.87565862749837       -0.00305607139687       -2.98381203097333
H           93.25964204394316       -1.90764297517035       -3.99950245416279
H           88.01110658041027       -2.38429027349121       -3.84675728747023
H           86.08718916152807       -1.19836756185324       -2.37138889091014
H           86.14785875728585        0.85035861963702        2.42657048729385
H           88.11151937019903        1.52417922593006        4.15322655405049
H           90.84184597169009        4.23341160891267        3.75257906642860
H           90.64716835457378        5.63919446604973        7.18879093484410
H           92.07131230341217        5.69691093187689        6.14278296682172
H           90.47202442221860        6.01458676306990        5.46365457536298
H           90.86096931188621        3.34152150964080        7.94178524369353
H           90.66060204605483       -0.36467432201375        7.38480062496121
H           91.42921366669405        0.81479810260051        8.46240784909427
H           89.67140743375002        0.78013867324241        8.30402424665921
H           90.52742620962380        0.17457845632917        5.07614615123022
H           93.07474370271848        3.06472712133899        3.33599858859858
H           94.65911272504532        3.08502851089880        1.15431809057627
H           91.35893633141562       -1.29347657683033       -5.53405536612877
H           91.94035530578553       -3.69274216413390       -8.29516751898318
H           92.26115234061899       -2.04888374669662       -7.70955302271682
H           90.65772561891580       -2.47711988240320       -8.31573217864826
H           90.69969403293689       -5.29297677666048       -6.91546268000818
H           90.70873936959796       -6.96596293251843       -4.33470846482186
H           89.35598577638913       -6.79303561183626       -5.45774853524900
H           89.14075759804504       -6.40807791917142       -3.73919533637426
H           89.91010928131597       -4.27910040096067       -2.82906248599712
C           51.29163828598524       -0.00185669743570       -0.26699894502548
C           50.06171834229286        0.00846388038043       -0.27411530224330
C           48.72036247121402        0.02079456723146       -0.27200097169405
C           47.49513494176517        0.02914674145510       -0.25290158976857
C           52.63290975325613       -0.00935433255696       -0.24977633645444
C           53.85799128490724       -0.01545029070835       -0.22310098467547
C           67.23303258799652       -0.06774333577185       -0.05413654674298
C           66.00343934068191       -0.07231708772595       -0.04786682855292
C           64.66113889113866       -0.07174238087332       -0.04462663223226
C           63.43611693017368       -0.06087833082749       -0.04591833390865
C           68.57538565836965       -0.05608727836540       -0.05399455588724
C           69.80025503954347       -0.04291495286067       -0.06175017889989
C           83.17972293657594        0.14692334824853       -0.10728385053767
C           81.95180564578399        0.13860268763576       -0.11105648525427
C           80.60664102034970        0.12500408525179       -0.11072734300378
C           79.38322460302793        0.10829602162286       -0.11034365364722
C           84.52502226839921        0.14817861569032       -0.10860965205119
C           85.74842697339042        0.13983411768655       -0.10734873750184
Co          58.64604435309768       -0.03383097620598       -0.10994596694258
C           55.25691816430677       -0.02099710375301       -0.19042451450060
C           55.93908320602867        1.17594360669535        0.05545229304333
C           55.29257014071099        2.42100952925626        0.32169195954189
C           56.25414366993719        3.37594694333418        0.26999109587086
C           57.48191851744316        2.70835961796681       -0.03960780969098
N           57.28533028998567        1.34828354885769       -0.09409317031102
C           58.66211872498315        3.35221285736799       -0.38740737074504
C           59.83840373661557        2.65063724479207       -0.61669586269224
C           61.07262631561972        3.24744425683018       -1.02808410492618
C           62.02406651961896        2.28642103379025       -0.92715950365182
N           60.02157642913981        1.31527658760614       -0.34269551027684
C           61.36514278999621        1.10543966063971       -0.46836248951526
C           62.03578618424002       -0.05137774762029       -0.05647685342219
C           61.34145166081482       -1.19745259851557        0.34640266382775
C           61.97286502696737       -2.37957796054905        0.83937219407546
C           61.00728581136300       -3.32787047525676        0.92638505003805
C           59.79342862424625       -2.72345165396041        0.46789357642900
C           58.62180628259581       -3.41741276684628        0.19597981395772
C           58.60113887649849       -4.88942910936448        0.34640287642693
C           57.68076241409057       -5.49100827827617        1.20421913272521
C           57.65142622041737       -6.87327316030976        1.35271683815045
C           56.67056198266930       -7.51408996463307        2.29699517837654
C           58.55017442565725       -7.65499937147338        0.63333613387114
C           59.47260511500652       -7.07005027720408       -0.22990937271399
C           60.44613556140676       -7.92836723749013       -0.99141529470378
C           59.49559947540848       -5.68685843825266       -0.36732880575652
C           57.46440969178687       -2.76751926286680       -0.21249289712506
C           56.24880342545681       -3.42789438303081       -0.57989854268175
C           55.29923897931045       -2.46574593540808       -0.68946050230711
C           55.94114467578892       -1.22389514807638       -0.39838377610492
N           57.27637086673047       -1.40579545654472       -0.17772031352380
N           59.99977427192876       -1.39307850399666        0.18505803839908
C           58.65910854679548        4.82516306700825       -0.53081094416304
C           59.52486870259837        5.61338491985782        0.22528697403719
C           59.51827141867643        6.99841186088528        0.09110941564029
C           60.46617385221069        7.83836756920985        0.90375110853676
C           58.64207849804528        7.59197402909802       -0.81137393714622
C           57.77153249786600        6.81818505583389       -1.57488977629603
C           56.84093793137387        7.47303487720547       -2.55950720186134
C           57.78364690787792        5.43635787304796       -1.42934258136055
H           54.23743928367469        2.53522552360094        0.51153304234516
H           56.15093426858061        4.43786632887363        0.42296545719839
H           61.18720073034836        4.27055446153915       -1.34716568553481
H           63.08004418337021        2.35822569837381       -1.13241527129521
H           63.02131436998658       -2.46027318941558        1.07739047976634
H           61.09996695445718       -4.34734864145050        1.26371244118497
H           56.99483949481245       -4.87016227305318        1.77008102092893
H           56.36760273049765       -8.49642899681596        1.93388753054582
H           57.13074249501080       -7.64252721493467        3.27937463136003
H           55.78328521802561       -6.89210438126043        2.41636996376421
H           58.52943827467447       -8.73440356989035        0.74322928598424
H           60.84499009560371       -7.39451657838701       -1.85388507226108
H           59.96654935929708       -8.84569334282636       -1.33434817916206
H           61.28145713588372       -8.20536149611068       -0.34431996291309
H           60.19696647315497       -5.22092689200371       -1.05074318927237
H           56.14493748583043       -4.49013920003801       -0.73019284770053
H           54.25454751740104       -2.57312806705223       -0.93335288597791
H           60.19142411280797        5.14149880684995        0.93883785789703
H           60.11200176171386        8.86658891044079        0.97670410144560
H           61.45092899214973        7.84863286594719        0.43107543941542
H           60.57884687225691        7.43107032990284        1.90893434261984
H           58.63327915732506        8.67163407758201       -0.92020399123441
H           56.44153563044694        8.40297245207719       -2.15350933306225
H           56.01122497605007        6.81211409745682       -2.81014690836238
H           57.37968883455732        7.70985638191098       -3.47971595563522
H           57.12088113439291        4.82158363434032       -2.02843129802048
Co          74.59049124035860        0.03201102536084       -0.08211332307048
C           71.20080488969566       -0.02217106313113       -0.06692894421311
C           71.86450995128638        1.20619643056520        0.01781557883143
C           71.20009792623955        2.46164451810008        0.16660475800715
C           72.14202027453742        3.42188420070613       -0.00348061876078
C           73.37603469975363        2.74699593340357       -0.27095210228856
N           73.20375650813925        1.38469523106878       -0.18094334471906
C           74.53598951554365        3.37133106315345       -0.70739163639384
C           75.71704996179332        2.66611244849145       -0.90162000707895
C           76.92807879121389        3.23616928682057       -1.40891499191772
C           77.90019077611474        2.30682822418913       -1.23558993403829
N           75.93178490013928        1.36995388396786       -0.49741708638535
C           77.27738862580871        1.17066353111821       -0.63478259815955
C           77.97947265869477        0.08582516192996       -0.10334941593521
C           77.31894057651881       -1.02064710799069        0.43705215380374
C           77.98531406135626       -2.13578145603878        1.03050961584865
C           77.04501956259496       -3.09416185215171        1.22018057270133
C           75.80959917634419       -2.56304835611185        0.72966426702195
C           74.64825765790413       -3.30501226141246        0.55488696222426
C           74.67461288806997       -4.75994211792856        0.82577693363212
C           73.80226314049528       -5.31850959518060        1.75931805948608
C           73.81795736329860       -6.68604035456774        2.01115928758815
C           72.88827322867000       -7.28128584971135        3.03389731006128
C           74.71372622810414       -7.49634705183469        1.32013926073106
C           75.59002518413340       -6.95428511439345        0.38397865051732
C           76.56093775723537       -7.84212133469824       -0.34648524403022
C           75.56817668340368       -5.58539223862952        0.14327708385827
C           73.46434615021585       -2.71947260825612        0.12894027367000
C           72.25016835095062       -3.43449575682260       -0.12458922616819
C           71.27708761926522       -2.50545059196230       -0.29280961553463
C           71.90243757696062       -1.22888604564317       -0.15487645069683
N           73.24823258565316       -1.36391424257215        0.03435347500306
N           75.97838601611032       -1.26187879751815        0.31942909655257
C           74.51465743598615        4.82814407144052       -0.96832704718671
C           75.39165018822978        5.67508982737707       -0.29294590807807
C           75.36695929330085        7.04740774720175       -0.52215713506974
C           76.32536970578063        7.94857797912654        0.20850888199214
C           74.46073741448426        7.56876666663155       -1.43910742880955
C           73.58017437961639        6.73540022629037       -2.12479496958652
C           72.61670102864038        7.31370987946132       -3.12568935881418
C           73.61113028231024        5.36700431208801       -1.88508045681085
H           70.14714745591498        2.57727115239133        0.36741563389133
H           72.02139150582879        4.49196705575436        0.04207848458360
H           77.01346973964969        4.22170214523079       -1.83697269380782
H           78.94872680279913        2.37348268510335       -1.47760566208294
H           79.03890591029969       -2.16986959191943        1.25678125596816
H           77.16743363645600       -4.07567656516661        1.64845308224987
H           73.11833597459241       -4.67502535214722        2.30181867952433
H           72.57768287611623       -8.28365359916069        2.73788893705707
H           73.39524027153111       -7.35473174912566        3.99872068598444
H           72.00178065600237       -6.65998900433422        3.16190959417470
H           74.72699287646807       -8.56466156876268        1.51036148288801
H           76.93074630605103       -7.35595288275268       -1.24915584812817
H           76.08921878498107       -8.78604055881293       -0.62168014229641
H           77.41526467851475       -8.06626315831804        0.29618094778160
H           76.23326683522519       -5.15374793423369       -0.59661798035198
H           72.16339972425180       -4.50813043731728       -0.16342695059578
H           70.22682002823592       -2.65519848175882       -0.48502776339022
H           76.08179302037142        5.25994942005533        0.43338074819442
H           75.98960564409491        8.98495022332013        0.17552800922921
H           77.31337392920123        7.89325862866830       -0.25395371211086
H           76.42380778916784        7.64228734555182        1.25053286286135
H           74.43579403703704        8.63829408257414       -1.62105190850517
H           72.20379935402343        8.25577770066818       -2.76326636169587
H           71.79759608550872        6.62219329540368       -3.32286733956051
H           73.13250670085272        7.51138644690975       -4.06798785463082
H           72.94023874788365        4.70628108042715       -2.42309496765120
