404
 energy: -619.814142455578 gnorm: 0.000453529287 xtb: 6.5.1 (b24c23e)
C           52.88067416593590       -0.15179899879759       -0.04620400258562
C           53.51266498830015       -1.38769273188526       -0.09674747638841
C           52.89519336131869       -2.66856528593986       -0.16574789015842
C           53.88425729241706       -3.61100851669837       -0.20384093946451
C           55.13731447508812       -2.93549310029934       -0.15837838264859
N           54.86263150220222       -1.59907067182965       -0.09357462416748
C           56.40923453154716       -3.51304139032571       -0.17517352957009
C           56.45836629994165       -5.00260057752528       -0.25903281887946
C           56.47480672245654       -5.62934993562453       -1.50831571643685
C           56.45055073485271       -4.80139360629090       -2.76552722011179
C           56.51711618912834       -7.01703934324769       -1.57624700513270
C           56.54443147794846       -7.78872065211834       -0.41932072215489
C           56.56902252011421       -9.29094109434418       -0.50479896484765
C           56.52877625685025       -7.15423808435736        0.81860416533358
C           56.48668543950740       -5.76798543592390        0.91024781922703
C           56.47449233936700       -5.08888688895650        2.25385713239685
C           57.61748561631329       -2.82049313739619       -0.12265291221189
C           58.91438923189444       -3.47308170522131       -0.13872884502504
C           59.83683093477698       -2.49057193438029       -0.07265822812722
N           57.77346574308111       -1.46935198371218       -0.04951325577030
C           59.10119905734347       -1.24146405122223       -0.01860164749224
C           59.73227632622172        0.01831002376901        0.04955799100899
C           59.07449238467791        1.26205569448797        0.09487483317757
C           59.68603498563385        2.54245997941083        0.16167795473108
C           58.69317424477007        3.48255847305267        0.18821971567642
C           57.44428216596927        2.80268179742255        0.13828744211834
N           57.72697418163869        1.46315096793195        0.08328816488357
C           56.17402397330623        3.38112593824200        0.14447513982685
C           56.12053798232170        4.87129015846286        0.20528394445305
C           56.14073031347407        5.61856972780180       -0.97586726564047
C           56.21997326450192        4.91940396128166       -2.30688077716455
C           56.08624616877504        7.00578627735496       -0.90795975785285
C           56.01321330993518        7.65914445660527        0.31790964976466
C           55.93206167662268        9.16060133253427        0.37766743014152
C           55.99415985252165        6.90546571988259        1.48693381541217
C           56.04755897318039        5.51724942876337        1.44276544410447
C           56.02731165913906        4.70903824378854        2.71279930467228
C           54.96425952378179        2.68550044598503        0.09880929117367
C           53.66125682398627        3.33190364974404        0.10824509758867
C           52.74483431694464        2.34401653186001        0.05709855292428
C           53.48772249201702        1.09626148358995        0.01483843361189
N           54.82091381506844        1.34014354452532        0.04136878416589
H           51.79584202478213       -0.17270954115030       -0.05888799042007
H           51.82958530266114       -2.83311768718776       -0.18381181868592
H           53.76877652390665       -4.68164850968491       -0.25778709346960
H           55.56371533894675       -0.86725955155898       -0.05099676742227
H           55.53759568201223       -4.20426628851706       -2.80898859979412
H           56.49480486557784       -5.43576675147383       -3.65028200996720
H           57.29913758871361       -4.11506225804351       -2.78344970764217
H           56.53115113544879       -7.50310931124888       -2.54631684417270
H           55.54822563962934       -9.68028014592196       -0.49498977837090
H           57.04866826549216       -9.62017559079904       -1.42681423382296
H           57.10290084008316       -9.71951433119500        0.34375109759895
H           56.55173739949372       -7.74824063109190        1.72642423124862
H           55.57153962270906       -4.48559294248887        2.36595975615141
H           56.50792063970337       -5.82082017854290        3.06028447851018
H           57.33433983262949       -4.42322212484055        2.34931816091009
H           59.06835898053114       -4.53884092015819       -0.19372625443807
H           60.91178515958545       -2.57486304784794       -0.06145924948389
H           60.75065605208073        2.71091318810174        0.18604143979855
H           58.80533066443206        4.55355765071261        0.23892363849827
H           57.02875325512795        0.72836485540747        0.03983870699664
H           56.19697545559146        5.63771734368308       -3.12582188058494
H           57.14271948967915        4.34003309286231       -2.37634433772949
H           55.38285957830272        4.22853400677312       -2.42264612250712
H           56.10176509107530        7.58549995203416       -1.82512513318934
H           56.37788512557029        9.53765991296947        1.29839075936659
H           54.88665379779363        9.47709951426767        0.35231746450681
H           56.44328939101440        9.61170355169979       -0.47310329747338
H           55.93784000172775        7.40656484816416        2.44778062135635
H           55.97323272498760        5.35801017991095        3.58634603285485
H           55.16607550359983        4.03835874993647        2.72116611043162
H           56.92784653448048        4.09643273744769        2.78702548893603
H           53.50213759665399        4.39777987157295        0.14821979942755
H           51.66870667102541        2.41968563004122        0.04649696603545
C          134.28582246915428        0.10432475803480       -0.02495867008849
C          133.66131043305563        1.33835891187226       -0.15375294197857
C          134.28667374779783        2.61116526364135       -0.27838520805437
C          133.30346271573052        3.55436270649745       -0.38609689018473
C          132.04626994213768        2.88736240101318       -0.33059891405419
N          132.31265767090738        1.55519262745126       -0.18898709468141
C          130.77797918308360        3.46810036705830       -0.40743968547445
C          130.73827174417468        4.95154288820274       -0.56883435272140
C          130.75115498375447        5.51419022346734       -1.84827768289250
C          130.79760947749625        4.62332236587483       -3.06107381102356
C          130.71725566822212        6.89680906950200       -1.98721826437508
C          130.66961922375688        7.72626936708420       -0.87163372290754
C          130.65436280624030        9.22229722602438       -1.03363738007708
C          130.65618159558542        7.15532007362525        0.39684062605799
C          130.68933643779982        5.77533979403546        0.55938090747304
C          130.66976449623314        5.16531316883643        1.93563998471251
C          129.56535900666083        2.78395479389500       -0.34685151230865
C          128.27248335156634        3.43901591602819       -0.43308253401337
C          127.34382743141245        2.46536305637714       -0.33177763213716
N          129.40090547860089        1.43992705894637       -0.19867197204179
C          128.07174003896648        1.21925603003923       -0.18484016546537
C          127.43291062760056       -0.03063979644770       -0.04451859740501
C          128.08340357979625       -1.27129797073039        0.09590500051623
C          127.46391104646058       -2.54205990300854        0.23435129504908
C          128.45109020777474       -3.48334664171747        0.33319052743243
C          129.70424285914322       -2.81379171432641        0.25816201268066
N          129.42977114325049       -1.47889011194562        0.11662979366937
C          130.97104788006644       -3.39701954562631        0.31561472457575
C          131.01486523807102       -4.88136428653895        0.46353774169869
C          130.99835385337988       -5.69574330989172       -0.67248814057801
C          130.93393816119797       -5.07449840764631       -2.04239740391473
C          131.04268128799097       -7.07698826817914       -0.52390714000101
C          131.10183923668379       -7.65863494645529        0.73831624176588
C          131.17157275092862       -9.15464316124273        0.88534861607964
C          131.11755146728970       -6.83858309131387        1.86180426903744
C          131.07421820127848       -5.45492019118909        1.73687818155851
C          131.09043649604999       -4.57457742462516        2.95807433573315
C          132.18513716227503       -2.71105168455275        0.24595977060922
C          133.48433064164490       -3.36187178467615        0.31084144032085
C          134.40673041091617       -2.38263430465573        0.21774105469332
C          133.67129438981186       -1.13584943663226        0.09434698938607
N          132.33657049682023       -1.37180135788762        0.11420271838119
H          135.37080750458765        0.11987756478812       -0.01958132021219
H          135.35327100834655        2.77011988047056       -0.28373123519623
H          133.42557232272182        4.62013124127508       -0.49445615404845
H          131.60706153019086        0.82963854181069       -0.12132107421273
H          131.70794630912931        4.02067829573244       -3.05444681829429
H          130.77573119502838        5.21208397521556       -3.97761924369532
H          129.94578916357997        3.94076797156712       -3.06244647478429
H          130.72595828141451        7.33316273619763       -2.98070560791163
H          131.67703302457457        9.60679262977762       -1.02939437912323
H          130.18926963819337        9.50642113113433       -1.97785718657309
H          130.11118238461486        9.69603602470016       -0.21556509054645
H          130.61720447813303        7.79463782186134        1.27277239933525
H          131.56712326716064        4.56498306562172        2.09750093319105
H          130.62294444883955        5.93739716614571        2.70301387712770
H          129.80478406852100        4.50872069430908        2.04633344008198
H          128.12520649582430        4.50019595753817       -0.55467630571834
H          126.26932691498389        2.55384577620056       -0.35179520006602
H          126.39815713641197       -2.70378514214999        0.25388548844887
H          128.33226066286073       -4.54855051905322        0.44893936012865
H          130.13258786647299       -0.75153943993893        0.03715833613925
H          130.96216862091660       -5.83904989780120       -2.81817953446670
H          130.01375563783884       -4.49763298050062       -2.15406982392826
H          131.77433183927499       -4.39374853594225       -2.18992954119043
H          131.02997960769989       -7.70880852888705       -1.40603126280916
H          130.72082072209551       -9.47437060434699        1.82515693766067
H          132.21460939543417       -9.47982185069387        0.88111350496773
H          130.65887270019346       -9.65051343605953        0.06076787737803
H          131.16307774161780       -7.28346731230622        2.85049073613722
H          131.12972707399618       -5.17222880384335        3.86826186411793
H          131.95829566298119       -3.91278668057121        2.93625709994413
H          130.19548400116147       -3.95013551307974        2.98756201164592
H          133.63704496892180       -4.42453762280738        0.41297207156494
H          135.48247306015352       -2.46371792169369        0.22739003053390
C           61.13643504916784        0.04652466972627        0.06990524916969
C           62.36114464268915        0.06340794511888        0.08295587911167
C           63.70347530969440        0.07187642414369        0.09355673758488
C           64.93444529831419        0.07162317043926        0.09916992255786
C           66.27205233171891        0.06491738851108        0.09823410018098
C           67.50302185984766        0.05304078193243        0.09124396377085
C           68.84502946225859        0.03815814499156        0.07824344225089
C           70.06990125861101        0.02180500742242        0.06027377724487
C           79.79164542900521        0.00109845324601       -0.00835891639312
C           81.01704389303859        0.00981483440008       -0.00256459338532
C           82.35828631927942        0.01328475328293        0.00587518913240
C           83.58973189297049        0.01419804834389        0.01291945099971
C           84.92636773449753        0.01371517889691        0.01710581314488
C           86.15784654134424        0.01117145906287        0.02017994482029
C           87.49909243984065        0.00577976584946        0.01926975373320
C           88.72451093908730        0.00108597436608        0.01278361170234
C           98.44133139212887        0.03511044142257        0.01638157910446
C           99.66673958837714        0.04278534298627        0.02716162505480
C          101.00795738648328        0.04703152931033        0.03402756235641
C          102.23942564012644        0.04434575440876        0.03693890793716
C          103.57602777478381        0.03796933794632        0.03677182911663
C          104.80744712411077        0.02725951938080        0.03470579657818
C          106.14858913811432        0.01282507966279        0.02729770507469
C          107.37386593106699       -0.00268966129595        0.01579771918027
C          117.09500312597949       -0.08497645278163       -0.05313517058998
C          118.32016177437482       -0.08797359498141       -0.05039933821260
C          119.66209088365599       -0.08937067002356       -0.04851213284946
C          120.89324640003302       -0.08701404169855       -0.04656505571403
C          122.23065178848094       -0.08310170595700       -0.04558707942359
C          123.46171872846485       -0.07869789870805       -0.04248004368744
C          124.80386100380626       -0.06775637253386       -0.04310017003551
C          126.02874530806709       -0.05264278746773       -0.04385090722339
C           71.47326553963822        0.00483741342007        0.03966602586988
C           72.10863398164656       -0.93466760023012        0.87492375400156
C           71.47753615284147       -1.87387561744086        1.73148697387143
C           72.45699791742132       -2.60035721731643        2.35258787854346
C           73.71456681887850       -2.12249908452821        1.89314261132907
N           73.45308325072416       -1.11583768656740        1.00253200076559
C           74.97653607330325       -2.58570315366139        2.27624577122632
C           74.99563231728557       -3.71052716530613        3.25784220352239
C           74.96114339971083       -5.03191502349568        2.80247526015279
C           74.90172525672799       -5.31728356030092        1.32543392934768
C           74.98479031568237       -6.07248211537251        3.72323167634377
C           75.04113961443188       -5.81703976965065        5.08980962196469
C           75.08896835477384       -6.95518566838208        6.07304609125758
C           75.07426730179574       -4.49871984318125        5.53127963219595
C           75.05169181611244       -3.44193625312669        4.62824352256667
C           75.08913123104107       -2.01780505285269        5.11498435333764
C           76.20173262318896       -2.09584761262309        1.83019323339499
C           77.48094565561506       -2.61592084245368        2.27881656460327
C           78.42961977178555       -1.89362207250322        1.64705647537139
N           76.39373902139101       -1.08243280748136        0.94033323703089
C           77.72730183144633       -0.93907914116205        0.81170038483318
C           78.38905151695583       -0.00690651729421       -0.01468567521224
C           77.75321971962957        0.92112851638680       -0.86259694856140
C           78.38425120411206        1.85750521364965       -1.72216036094038
C           77.40439546545564        2.55125298672280       -2.37895661515015
C           76.14672663148615        2.05863962156483       -1.93548488964668
N           76.40871417581326        1.07615944279557       -1.01822851307692
C           74.88477002253522        2.49256986773778       -2.35097541079096
C           74.87029496612790        3.56704888023512       -3.38745987332948
C           74.91491898445332        3.22495109556530       -4.74205626568521
C           74.96909249893515        1.77712319060539       -5.15136796855921
C           74.90634329234275        4.23066505424956       -5.70156024757874
C           74.85328254655340        5.57045457500347       -5.33216496427385
C           74.86681171268694        6.65217562615060       -6.37815711219555
C           74.80786319095324        5.89914374687923       -3.98105450018012
C           74.81511612266340        4.91029069419120       -3.00440789129386
C           74.76384996770886        5.27489949358123       -1.54464153076973
C           73.65940064682565        2.01586204857970       -1.89070835480077
C           72.38009174532759        2.52209230233887       -2.35450092207649
C           71.43182254234408        1.83677055711016       -1.68217814830841
C           72.13428878009510        0.91068012521649       -0.81545355141733
N           73.46809802433532        1.03957642449162       -0.96057002096729
H           70.41064416244483       -1.97412948792820        1.84960381272716
H           72.32832575970603       -3.39670363928488        3.06767940947567
H           74.15975023535864       -0.58237367009213        0.50734404094760
H           73.99582683329429       -4.88860557880753        0.89241173225668
H           75.75824389591165       -4.86937415140732        0.81823709915404
H           74.90465996217908       -6.39025931646091        1.13606995086429
H           74.95869405329216       -7.09810595875418        3.36982901482377
H           74.72753731938479       -6.64014297162252        7.05203612966134
H           74.48346268603218       -7.79289296102846        5.72565554584508
H           76.11765911916739       -7.30539945535834        6.18588370822511
H           75.11793523935917       -4.28947638132218        6.59511441385101
H           74.20617652787884       -1.47567488175420        4.77120088733993
H           75.12109194715866       -1.97934429678535        6.20339539305620
H           75.96922677065521       -1.50621049340768        4.72086051096713
H           77.60682738860000       -3.42350316748720        2.98198298903346
H           79.50214062229355       -1.97927728079842        1.71857128750051
H           79.45127483753495        1.97634462703303       -1.82007680607489
H           77.53310463351453        3.33726770080170       -3.10536717753441
H           75.70223665636438        0.53809271868470       -0.52777449155655
H           74.95000529041820        1.67862296532357       -6.23630407700090
H           74.11966837661704        1.23302037867613       -4.73451755918450
H           75.88156471928291        1.31064941047131       -4.77475234224167
H           74.93986114242668        3.96430626127482       -6.75293089864820
H           74.46190191072120        6.28618968075295       -7.32184594821211
H           75.89223982890357        6.98551587050454       -6.55434011978511
H           74.28246583062923        7.51346309450278       -6.05325066652246
H           74.76474290619049        6.94184501475797       -3.68376966244586
H           75.64698910243943        4.89482977201713       -1.02745770620368
H           74.72109695302876        6.35588903654188       -1.41494336483188
H           73.88465861306439        4.83098660118864       -1.07396702360392
H           72.25407959458555        3.29646588593269       -3.09407676735117
H           70.35934507598128        1.92626612973838       -1.74952577507805
C           90.12711025333034       -0.00553339250277        0.00500279627426
C           90.76128945665816       -0.93161365740937        0.85654979476563
C           90.12795665205188       -1.86544080684761        1.71716860869397
C           91.10594271799278       -2.58420739060785        2.34960984666315
C           92.36459905716417       -2.10640210785658        1.89347832555466
N           92.10530790917770       -1.10638614572085        0.99456874457778
C           93.62584430262635       -2.56547116609667        2.28399495792320
C           93.64122765512180       -3.69106972584763        3.26473612877510
C           93.58903624204615       -5.01133434305165        2.80749651968723
C           93.51990699649481       -5.29413801122544        1.33036295689333
C           93.60302544445570       -6.05359640971464        3.72648622885783
C           93.66691732350878       -5.80115849203284        5.09328777298494
C           93.70094817291310       -6.94161920056651        6.07441429073980
C           93.71947802753935       -4.48409302416474        5.53656154397761
C           93.70697312324785       -3.42556936347223        4.63529416614042
C           93.76364186269228       -2.00291191179134        5.12445901653403
C           94.85139242998619       -2.07234090290899        1.84253117850863
C           96.13053356583795       -2.58717026729485        2.29695090577965
C           97.07912184540524       -1.86135868141145        1.66898388329666
N           95.04327993465269       -1.05903760642878        0.95238034319615
C           96.37681979548096       -0.91051284729494        0.82936039232200
C           97.03882395478519        0.02293076099701        0.00448550343067
C           96.40459603318553        0.94665869238585       -0.84951291585146
C           97.03793981739786        1.88446787781388       -1.70576344826972
C           96.06008220783598        2.57105675029764       -2.37316832825207
C           94.80152303479468        2.07214496930117       -1.93996003972251
N           95.06070085087572        1.09395103235821       -1.01733717222892
C           93.54046876459155        2.49503392262174       -2.36987527128817
C           93.52583837760935        3.56651697001730       -3.40946693828751
C           93.58024972292758        3.22167805403918       -4.76299720933222
C           93.65107782291709        1.77354166163988       -5.16865498172219
C           93.56491874683446        4.22492104334228       -5.72504140086457
C           93.49558504207391        5.56496533986576       -5.35931194316563
C           93.49868568341827        6.64419759965092       -6.40796840080357
C           93.44277093255761        5.89649178548694       -4.00916628745281
C           93.45653567042221        4.91016993239679       -3.03004934199374
C           93.39562264178493        5.27796231877230       -1.57146679525507
C           92.31488656545910        2.00932280288363       -1.92041557657795
C           91.03584288663731        2.50071619224307       -2.40032851066199
C           90.08713091199493        1.81058530968948       -1.73354069845789
C           90.78930431060139        0.89680276306807       -0.85362387648430
N           92.12287220019402        1.03659655396853       -0.98610678213694
H           89.06070820107004       -1.96802095575634        1.82986734842356
H           90.97529520772540       -3.37487396064140        3.07060876389337
H           92.81360434384223       -0.57529979295991        0.49915921849618
H           92.60692859196415       -4.87192623873533        0.90582635125486
H           94.36847266611899       -4.83851077501163        0.81685059302668
H           93.52929079832569       -6.36670612152790        1.13886980130310
H           93.56253132174071       -7.07821736771988        3.37152975525742
H           93.35051599724652       -6.62214146308079        7.05595494431381
H           93.07896413292892       -7.76804970790499        5.72906641526760
H           94.72396812777109       -7.30994687222838        6.18074533352943
H           93.76967504508083       -4.27712068290915        6.60055182019164
H           92.88685427258625       -1.44898399589164        4.78370357355214
H           93.79874491581619       -1.96690945050913        6.21286292123395
H           94.64928521415594       -1.50182389667898        4.72928004369675
H           96.25636065201174       -3.39425679964389        3.00071266959746
H           98.15163542242023       -1.94267195871748        1.74545118920314
H           98.10510685087073        2.00913240469914       -1.79442392418997
H           96.19073914429742        3.35578775712571       -3.10062208605805
H           94.35244066085214        0.55335297554273       -0.53226832288168
H           93.64581892544568        1.67281210103818       -6.25354050511972
H           92.80101732197220        1.22342306798837       -4.76104543170808
H           94.56262179922057        1.31516696128543       -4.78008088826331
H           93.60517857953133        3.95630578206169       -6.77560001806943
H           93.10222211161606        6.27047347703893       -7.35221368471000
H           94.52008695815688        6.99111834184056       -6.58119872533590
H           92.90140847450510        7.49821297295474       -6.08735985116308
H           93.38779889893127        6.93941370233048       -3.71462784319785
H           94.27530517310076        4.89926356007813       -1.04754206150044
H           93.35164863612953        6.35921265971932       -1.44446283813360
H           92.51336096196319        4.83489082905798       -1.10574648221613
H           90.91016630028338        3.26940508256516       -3.14585760669747
H           89.01462310798767        1.88971903400898       -1.81234802913884
C          108.77625635043880       -0.02258779189525        0.00022295442973
C          109.40610698538592       -0.95535863539201        0.84744660919015
C          108.76890500057250       -1.88014762721134        1.71495416039984
C          109.74359557423843       -2.60812541523660        2.34170671516123
C          111.00414405476879       -2.14607773099188        1.87421452835568
N          110.74909007249848       -1.14510640800995        0.97514374919239
C          112.26253463073003       -2.62089612176869        2.25435290066905
C          112.26945551707108       -3.74195115977521        3.24034163858705
C          112.18788712440070       -5.06338064101242        2.79102370940678
C          112.10101404727018       -5.35273198299534        1.31609176053559
C          112.18820949462329       -6.10057458472823        3.71587958052261
C          112.26717537537716       -5.84171750265899        5.08065775094589
C          112.28347868762479       -6.97671286580899        6.06854836865888
C          112.35074259684954       -4.52354070681510        5.51593925891790
C          112.35241787113038       -3.47008594374758        4.60875013235228
C          112.44084122238888       -2.04604496897820        5.08913411735638
C          113.49110495643808       -2.14751002745692        1.79928849724690
C          114.76660123346301       -2.68275250181334        2.24036305189254
C          115.72004511068852       -1.97250241476048        1.60202707858474
N          113.68960370666507       -1.13784602497003        0.90698749281813
C          115.02434174802582       -1.00976072876263        0.77057891799098
C          115.69165716488911       -0.08102438681864       -0.05468993613356
C          115.06201115377542        0.85779869185458       -0.89523186825876
C          115.69938758867730        1.79471832785436       -1.74957297268895
C          114.72434756331226        2.49916778509460       -2.40224137276398
C          113.46342201197923        2.01232063622291       -1.96198116724132
N          113.71844535272079        1.02321863012286       -1.05005858659489
C          112.20424592568128        2.45372985197669       -2.37864637285509
C          112.19330864277408        3.53688821297493       -3.40613634572845
C          112.22143130570512        3.20749564513839       -4.76422407298372
C          112.26483431789258        1.76337017447050       -5.18763627582142
C          112.20451016456364        4.22236074442075       -5.71403531796801
C          112.15935007922715        5.55869471695454       -5.33143387583449
C          112.15792316846547        6.65060613304894       -6.36689879099770
C          112.13421038106659        5.87483169028296       -3.97676663447240
C          112.15011601422817        4.87675328787505       -3.00975411338871
C          112.11774523357343        5.22748767302650       -1.54606861948977
C          110.97588661895898        1.97796011938636       -1.92622802988898
C          109.69983006756961        2.48657792310442       -2.39638916329996
C          108.74690171136444        1.80173939816952       -1.73020676455056
C          109.44344576731231        0.87515721487891       -0.85927678760636
N          110.77777777803594        1.00107445156026       -0.99764526508053
H          107.70147456125387       -1.97028948709520        1.83628306703068
H          109.60951238077956       -3.39533663211875        3.06583622577786
H          111.45902589229166       -0.62260592423196        0.47300209556257
H          111.18900736906568       -4.92169128094035        0.89834664585659
H          112.94984035021447       -4.90986187032136        0.79200451383400
H          112.09554794261246       -6.42626928157981        1.12997113184310
H          112.12415274527227       -7.12613401836615        3.36715811919916
H          111.93673155127345       -6.64606732292426        7.04771658342345
H          111.64966639357321       -7.79589927206917        5.72752367463183
H          113.30083583310909       -7.35937273768700        6.17844612436541
H          112.41349437153490       -4.31172736080905        6.57831082991267
H          111.56682571098168       -1.47995188510077        4.76133051605691
H          112.49617255476393       -2.00501162462565        6.17652566308706
H          113.32691807992764       -1.56113300397524        4.67525034729273
H          114.88675930499991       -3.49176389776927        2.94291440814105
H          116.79187879558987       -2.07090657898457        1.66715648357544
H          116.76720574361663        1.90657299582902       -1.84707154952783
H          114.85824596389516        3.28803856608596       -3.12462177380716
H          113.00811791045834        0.48751253314374       -0.56259466360111
H          112.25511450485277        1.67591102302306       -6.27364042968953
H          111.40551920057034        1.22419608645404       -4.78469092641875
H          113.16847846722148        1.28349616526946       -4.80671227143303
H          112.22373668341908        3.96583944255223       -6.76820623785894
H          111.74993223773170        6.29064110280998       -7.31156256385699
H          113.17928170380625        6.99457836702822       -6.54605136658864
H          111.56830252456382        7.50360724149750       -6.02973749518396
H          112.09876807638628        6.91482779587336       -3.66917276145490
H          112.99779959310672        4.82608964577958       -1.04002409731034
H          112.09583094172595        6.30768526281470       -1.40521958007258
H          111.23433953701134        4.79496088756278       -1.07263738907492
H          109.57878598117186        3.26195992302174       -3.13572188486739
H          107.67493270670775        1.89274971073040       -1.80337662599513
