430
 energy: -666.696177305055 gnorm: 0.000660375573 xtb: 6.5.1 (b24c23e)
C           72.07941431364219        0.07408684656225        0.00458747374486
C           72.69093765719018        1.27540796249062        0.33946538455986
C           72.04257818628393        2.48759864333108        0.70816842166552
C           73.00719138474923        3.42535921315055        0.94834495690981
C           74.27615144972205        2.81951671464318        0.72294078881236
N           74.03445041658713        1.52224875208126        0.36865121410213
C           75.53997980859658        3.40748527672870        0.84400172786145
C           76.75329417459466        2.74726931482506        0.63715968934796
C           78.04979967309269        3.39804126806354        0.69822051167263
C           78.96960263596759        2.44214710915668        0.45230755776138
N           76.90688757180374        1.42760178674715        0.33934494615145
C           78.23372107007452        1.21150410724346        0.23552011225640
C           78.86902760816413       -0.02066065582695       -0.01836560601688
C           78.23114031339891       -1.24987317932677       -0.27000311316628
C           78.87227930548697       -2.49605331331262       -0.49906847868226
C           77.90341069816816       -3.43195847353918       -0.73467760573876
C           76.63976565422217       -2.78263520399118       -0.66481139150367
C           75.37776299611161       -3.35897860072252       -0.84309743451740
C           75.34696731650642       -4.79659698575645       -1.20769954237042
C           74.71996794649827       -5.72268334599017       -0.37498310765741
C           74.69490983687184       -7.07184593665779       -0.71121449607366
C           74.00526280430097       -8.06509574097905        0.18464812881872
C           75.29784852265612       -7.49200116651025       -1.89320424327971
C           75.92705692262389       -6.58019403863955       -2.73536021717175
C           76.55860106897350       -7.04095219705283       -4.02132049946189
C           75.94971896644053       -5.23410886599190       -2.38664138048683
C           74.16270606068576       -2.67990847892817       -0.70674278593349
C           72.85869265488361       -3.27954202202264       -0.94299194984273
C           71.94576750248466       -2.31733623366858       -0.70047846282914
C           72.69109219367087       -1.12760215878940       -0.32855207084578
N           74.02259440827210       -1.38018226984887       -0.35254468283580
N           76.88969809928021       -1.46840084405957       -0.36935739803794
C           75.57680860705504        4.84197190787225        1.22300141268062
C           76.19844959022960        5.23726092148763        2.40582736470912
C           76.23366749148195        6.57926689597994        2.77259861492379
C           76.91840780611690        6.99158785185328        4.04768845959109
C           75.64529894673845        7.52767883623003        1.94312097296604
C           75.02106665040361        7.14880878238324        0.75723490830300
C           74.40777523145985        8.18942018502246       -0.14043422092776
C           74.98823203377060        5.80503120356432        0.40327586407306
H           70.99404862849042        0.08470697110033        0.00616128248156
H           70.97383065016209        2.61094972885591        0.78258029427426
H           72.85942202102791        4.44636984087517        1.26098943095777
H           74.75787160779007        0.84183100220810        0.16152452297097
H           78.21108980413813        4.44664780500650        0.88918613570015
H           80.04300604707845        2.53581339918561        0.41010047089167
H           79.93947033212802       -2.64800557632353       -0.47940159875749
H           78.04735938240270       -4.48199404610365       -0.93055244795476
H           74.26795210692812       -5.38599382034799        0.55153061600322
H           72.96524182864667       -8.18560754446709       -0.12729307154463
H           74.49038168058250       -9.03993236758688        0.12963872421810
H           74.01163088955063       -7.72477355008300        1.22026197350282
H           75.28030557378298       -8.54390226103301       -2.15937377029128
H           77.39198000689164       -6.39484157490682       -4.29808305472843
H           76.92022393374367       -8.06549533775751       -3.93130978394345
H           75.82254714484812       -7.01014329039027       -4.82798585939181
H           76.42525810637375       -4.51260888740337       -3.04216153869649
H           72.69049474950511       -4.29559129695463       -1.26210789301840
H           70.87043569430516       -2.37416791869828       -0.76667926786918
H           76.16964899989608       -0.76476487335309       -0.24276590089986
H           76.64175606779270        4.48743038999978        3.05188056376343
H           76.66728597591194        6.30643790344322        4.85828291016975
H           76.62961309468351        8.00173094554383        4.33771582688619
H           78.00194440890348        6.96973993577914        3.91176027993084
H           75.67014903106481        8.57583144065799        2.22310531864121
H           73.93530972817821        8.97700652211348        0.44747083467596
H           75.18174346204107        8.64820619815818       -0.75993401429026
H           73.66205842238068        7.74522130172991       -0.79979467158652
H           74.51788895126953        5.49986841074973       -0.52517547614256
C          146.12672745427506       -0.07718406812717       -0.04330959907429
C          145.51691763621227       -1.29377707042710       -0.32143541067588
C          146.16736159570809       -2.53348760139329       -0.57785652064311
C          145.20402205951342       -3.47564961351227       -0.80565146524257
C          143.93378226407597       -2.83975035641467       -0.70521163428914
N          144.17352947431053       -1.52871038229476       -0.40448845581568
C          142.67069359299236       -3.42209224286744       -0.85713576264229
C          141.45568975172412       -2.74944445256637       -0.71045478257054
C          140.15836184680555       -3.36379362974271       -0.92856183202689
C          139.23754622642522       -2.40507267669466       -0.69829925483291
N          141.30100327445405       -1.43944300128900       -0.37221939360906
C          139.97358477234619       -1.20508388091178       -0.34972774480477
C          139.33712886296834        0.01472172065615       -0.04364801942378
C          139.97256484981790        1.23121553753776        0.26838861627731
C          139.32827500497626        2.44841813028476        0.61467212883839
C          140.29572373957745        3.38517698972978        0.85234938677343
C          141.56191683627651        2.76996089554875        0.64830926770354
C          142.82400669213666        3.35541314272128        0.79200135916835
C          142.85504718669776        4.79296998466165        1.15751598520242
C          143.45049995776500        5.20113924046074        2.35050893849726
C          143.47361875660647        6.54550909683262        2.70511664904726
C          144.12832664978779        6.98171607973510        3.98799196870611
C          142.90058201861996        7.48560310144969        1.85358618181666
C          142.30389375195355        7.09459014061610        0.65880423547569
C          141.70466871296554        8.12093577416266       -0.26448145933460
C          142.28302847174578        5.74670693883444        0.31648989325525
C          144.04005387934379        2.68656652019432        0.61878432674105
C          145.34441911837592        3.32259309870613        0.71843663351808
C          146.25843121590574        2.35922631808606        0.48492057161288
C          145.51369469165709        1.13793496353255        0.23364838380445
N          144.18141522451850        1.37436574206268        0.31483099331954
N          141.31425412195759        1.46712714099595        0.30392682540231
C          142.63821872017758       -4.86499277590549       -1.20416311816869
C          142.04465337544445       -5.78240885491959       -0.33952226779582
C          142.01275344026581       -7.13663754097331       -0.65848060131915
C          141.35735674761025       -8.11445078461060        0.27909570992562
C          142.57577017330900       -7.56842211209046       -1.85456162130529
C          143.17233187218594       -6.66397537922809       -2.72933442286138
C          143.75771518278245       -7.14254663666834       -4.03052137022423
C          143.20255320256561       -5.31429222623526       -2.39801205154572
H          147.21210889411745       -0.08661801554743       -0.04387376405401
H          147.23657919747077       -2.67401502629289       -0.57860650613403
H          145.35321030959923       -4.52209582042811       -1.01723113814634
H          143.44889640014176       -0.83380307392127       -0.25871001777049
H          139.99671308479989       -4.38597046124446       -1.23027846901323
H          138.16329585768167       -2.47494147533623       -0.76024063673027
H          138.25997944025693        2.57864414831402        0.67911396857494
H          140.14877263970979        4.40977232479222        1.15276661247117
H          143.87890304319487        4.45763068288053        3.01367609801057
H          145.17217483974272        7.24399228170364        3.80079036681983
H          143.62793576775661        7.85802719836503        4.40078344027054
H          144.10683791888746        6.18109664584868        4.72750125811292
H          142.91593002224292        8.53577393383723        2.12662891620963
H          140.88736797244457        7.69170145302718       -0.84444306549969
H          141.32842433596332        8.97609732652564        0.29742939622188
H          142.46418073399587        8.48070032140217       -0.96242684458771
H          141.83275519555625        5.43213407731378       -0.61875908001456
H          145.51203795823335        4.36722677682982        0.92614030638971
H          147.33431113577274        2.43800191081291        0.46986140481643
H          142.03628776916298        0.77958325510551        0.11526209526175
H          141.62080143782546       -5.43621903045672        0.59676527425773
H          141.60991732658752       -7.88380318925545        1.31467491674115
H          141.66854684533874       -9.13558943750031        0.05909699222582
H          140.27143655743200       -8.05704317318801        0.17618958551875
H          142.55266443556107       -8.62302853087116       -2.10932707705595
H          144.21842703532820       -8.12349228772248       -3.91010152292902
H          142.96986754134963       -7.22885971818108       -4.78232400653588
H          144.50715574631371       -6.44325996485305       -4.40142895637082
H          143.65183973667786       -4.59864260245372       -3.07799575324987
C           81.49748448278663       -0.05410065266024       -0.03013534032503
C           80.27553099754765       -0.03887122417551       -0.02376686847856
C           82.84713558021305       -0.06473342687206       -0.03453528179869
C           84.06928619343351       -0.07010742365745       -0.04174983896466
C           94.96300619988548       -0.04792777367599       -0.03765300440952
C           93.74011420425718       -0.05794147164374       -0.04196051070812
C           96.31124067961196       -0.04119117965364       -0.03706809682340
C           97.53402271331538       -0.02668243286269       -0.04039336274817
C          108.43118049015877        0.00029201565310       -0.00608795395449
C          107.20814976862665       -0.00471808567592       -0.00542338964533
C          109.77947769602426       -0.00025706334282       -0.00660813661855
C          111.00251579291661        0.00224176127282       -0.01305817689143
C          121.89865089224688        0.00613269299163       -0.02222715780920
C          120.67575072277732       -0.00069307875202       -0.03173919365894
C          123.24680835206867        0.00983344754559       -0.01669204435993
C          124.46967413175268        0.01780265095509       -0.01650043901706
C          135.35911237865625        0.05521394728059       -0.04537847030035
C          134.13691396683669        0.05466778787043       -0.04708919648334
C          136.70868602196447        0.04684055244873       -0.04426637143951
C          137.93067238472474        0.03147554179060       -0.04358328280424
C           85.47502613592026       -0.07302129338506       -0.04924537885292
C           86.10112943993023       -1.25893849429308        0.37954490965478
C           85.45217833298710       -2.43200705560292        0.84400055699846
C           86.41711708311313       -3.34837385041999        1.16274676467340
C           87.68389250739818       -2.76280970565634        0.89356676258147
N           87.44202100724563       -1.49754520567229        0.42907193210062
C           88.94317557937855       -3.34492358123076        1.08270981500804
C           90.16847472534778       -2.72041631019680        0.84850782959153
C           91.45378363839446       -3.37655845669921        1.00713570829935
C           92.39275218960866       -2.45968710713598        0.69359338270138
N           90.34796504445158       -1.43675604176695        0.42891331241297
C           91.67936244476942       -1.24959677394301        0.33573906243278
C           92.33598630122890       -0.06211010157920       -0.04769495985781
C           91.70876317606243        1.13546979952327       -0.44376442612981
C           92.35728076902383        2.34301551935463       -0.80996252199433
C           91.39222226404775        3.25655689164648       -1.13642694977570
C           90.12576659415258        2.62929081743597       -0.98587654615805
C           88.86689010847965        3.20038290468983       -1.20663774191019
C           88.85510408170381        4.59926434690839       -1.70434736430725
C           88.27356362672575        5.61199098608021       -0.94210951554232
C           88.25704398558644        6.92271801511059       -1.40474524964123
C           87.64665127127770        8.01834555270212       -0.57313974479170
C           88.82590974690747        7.21731801099302       -2.64101248210274
C           89.40774717613643        6.21785991904789       -3.41405712370732
C           90.03260143367727        6.54726674282160       -4.74291708085742
C           89.42307845857310        4.91046792433249       -2.93849392016304
C           87.64124014247730        2.56614075536852       -0.99919721484938
C           86.35564278290288        3.17742105468520       -1.28511368572310
C           85.41690358490081        2.26626186836498       -0.95539027695085
C           86.13055123595359        1.09725705423277       -0.48067738274516
N           87.46258684401126        1.30221724458365       -0.52501349977634
N           90.36815950187707        1.35118773237937       -0.55727186301554
C           88.95311214443093       -4.74498238686054        1.57779970000300
C           88.39002889159593       -5.76558177161064        0.81371042256172
C           88.39753824315241       -7.07879632504434        1.27321912225799
C           87.77675865092452       -8.17219582584156        0.44616855924106
C           88.96630521157522       -7.36478920926367        2.51010625486155
C           89.53099982232929       -6.35594907282544        3.28574442250639
C           90.12441378223525       -6.67583675529567        4.63112237594051
C           89.52304390104656       -5.04825324874010        2.81373636000087
H           84.38365226134124       -2.54881616192980        0.92697192263526
H           86.26706635345478       -4.33952931098389        1.55858697633149
H           88.16333119135878       -0.83294339117010        0.16972929689876
H           91.59558172816928       -4.40272540174956        1.30533393451424
H           93.46559129438707       -2.56848355036982        0.68926499272531
H           93.42558718156809        2.48766838657791       -0.81497483215764
H           91.54187264462239        4.27814942253438       -1.44553572808775
H           87.84364580275984        5.37121630670655        0.02392692351499
H           88.43171341271901        8.57249224437268       -0.05373433021938
H           87.09847117503671        8.72027659088494       -1.20248703793466
H           86.96658851168559        7.60836799778378        0.17345102648363
H           88.81126092326193        8.23879852507236       -3.00710286677251
H           89.94733766376947        5.70589663618591       -5.43098436946716
H           91.09379665760088        6.76946506593634       -4.60878484020307
H           89.55697585160276        7.41991700445779       -5.19084111473872
H           89.85999038458429        4.12032984326383       -3.53946176180025
H           86.21291765762800        4.16442716187235       -1.69422874316303
H           84.34409870932595        2.34862889744898       -1.02617218248607
H           89.64722585202824        0.66834749563596       -0.34937034897074
H           87.96197227812831       -5.53304985215787       -0.15534940945873
H           88.21450696366094       -9.14054682162589        0.68886880910391
H           87.91446266191005       -7.97867283489362       -0.61796896679178
H           86.70373560680399       -8.22374950614202        0.64479065487931
H           88.97342004515471       -8.38720076404813        2.87378593908093
H           90.86734255141087       -5.93080888241988        4.91600468605990
H           90.59495249093516       -7.65939710834600        4.62297492646145
H           89.33938950581832       -6.68234380591877        5.39079862793062
H           89.94982627730886       -4.25170645246688        3.41325284965658
C           98.93803672993337       -0.02506222613804       -0.04099992336387
C           99.56534692371025       -1.19527950187653        0.42997006794437
C           98.91746146506078       -2.35604118860539        0.92501175244770
C           99.88310209791599       -3.26687637117464        1.25785060136253
C          101.14892232758692       -2.68951359818243        0.96809773189043
N          100.90608794766366       -1.43334667870475        0.47968886736931
C          102.40784164747382       -3.27310163190617        1.15589810401645
C          103.63379765642003       -2.65491569741928        0.90893843254767
C          104.91817648486129       -3.31215460760224        1.07003587421030
C          105.85824052481057       -2.39941955776620        0.74768242013373
N          103.81481396719354       -1.37546064876522        0.47707965817323
C          105.14637913741367       -1.19139704027361        0.38033733848080
C          105.80414223426119       -0.00790778661085       -0.01392081155806
C          105.17654925673888        1.18397264386689       -0.42674809889914
C          105.82374525069034        2.38871298278279       -0.80361779172279
C          104.85818955324719        3.29303048203927       -1.15412492169266
C          103.59296737087284        2.66237299301000       -1.00841786581740
C          102.33427339792459        3.22241610246548       -1.25921424467111
C          102.32356898438576        4.60932419801477       -1.78936784835198
C          101.72130612713296        5.63587308192919       -1.06235066136854
C          101.70530628188422        6.93521850809263       -1.55601259878628
C          101.07230142069359        8.04597215571731       -0.76219609921019
C          102.29574567712598        7.20463309756995       -2.78795498640470
C          102.89841233277239        6.19129333074337       -3.52605897182597
C          103.54636091220671        6.49275859692422       -4.85048846837157
C          102.91283310976338        4.89548160069559       -3.01959612216523
C          101.10845417313793        2.58785231333395       -1.05507028129576
C           99.82475144779964        3.18480698564078       -1.37701998592706
C           98.88469029132993        2.28035500957111       -1.03211224667465
C           99.59589731301394        1.12973708947752       -0.51171174568242
N          100.92725732908154        1.33720786584441       -0.54628520140293
N          103.83614124079243        1.39264031918145       -0.55615097380604
C          102.41562576152236       -4.67008808400790        1.65934989858372
C          101.84178929283281       -5.69081758014879        0.90338443815423
C          101.84818413333601       -7.00269796710400        1.36653709900739
C          101.21622339159930       -8.09633266889333        0.54837159079327
C          102.42660480360698       -7.28706115804914        2.59926638125749
C          103.00156875880133       -6.27793584779158        3.36716406201599
C          103.60575978915121       -6.59816091746068        4.70765572040871
C          102.99473486020440       -4.97165155127267        2.89146838105174
H           97.84931339707155       -2.46993231543660        1.01608881216707
H           99.73400745817645       -4.24902978543043        1.67583900908413
H          101.62623080183739       -0.77582171540042        0.19992051104076
H          105.05896276104072       -4.33603148136070        1.37642033544097
H          106.93086413242793       -2.51023065597058        0.74253269008824
H          106.89144119050363        2.53789685637891       -0.79945468409581
H          105.00694720140221        4.31058355074661       -1.47670805856183
H          101.27466852642898        5.41506609538080       -0.09913117552012
H          101.84336850771454        8.61378272894277       -0.23659882552740
H          100.53669788509835        8.73249238575683       -1.41878552111656
H          100.37640196484614        7.64943500701462       -0.02296418503392
H          102.28161189132427        8.21715668706492       -3.17816422385674
H          103.45763698239195        5.64301795848978       -5.52781700952528
H          104.60896843678496        6.70039918812405       -4.70480281030704
H          103.09031666751562        7.36597520294048       -5.31720420926672
H          103.36592687838589        4.09453743909953       -3.59368603799627
H           99.68399755682563        4.15817686678491       -1.81828828055723
H           97.81256428094289        2.35621874333970       -1.11954609929386
H          103.11629039392241        0.70936758856638       -0.34602860509504
H          101.40626475985503       -5.45930878106240       -0.06258648156157
H          101.66546021747989       -9.06286678861834        0.77700393108250
H          101.32893590540337       -7.89731215282662       -0.51765241326477
H          100.14829060526567       -8.15588737814655        0.77075780648062
H          102.43327742757592       -8.30839846304645        2.96597689457897
H          104.32127178612886       -5.83186505912293        5.00576653759083
H          104.11180639044191       -7.56375793675648        4.68275404907341
H          102.82138462148718       -6.64703869082194        5.46639129789395
H          103.42944027392332       -4.17488429289912        3.48495011442216
C          112.40652632678601       -0.00165968804187       -0.02298231681854
C          113.03376526264880       -1.17497934980820        0.44049559324790
C          112.38569945319121       -2.33650491645877        0.93380151196203
C          113.35075562696287       -3.25149228537923        1.25689709253578
C          114.61654021555509       -2.67608575171627        0.96305816704797
N          114.37413358489150       -1.41698899874797        0.48148180451820
C          115.87509211687771       -3.26275480704232        1.14299734967944
C          117.10115158167805       -2.64709478790923        0.88929487340232
C          118.38507576872412       -3.30729880184828        1.04237657214065
C          119.32530793119372       -2.39603420296103        0.71652932205394
N          117.28241608724321       -1.36775650429252        0.45775452294199
C          118.61394146805716       -1.18623429591604        0.35469177512979
C          119.27183387644078       -0.00318402904097       -0.03965443016788
C          118.64485420477659        1.18972310621281       -0.45024473591639
C          119.29306657703881        2.39320408889090       -0.82907407015046
C          118.32792028255518        3.29970499896761       -1.17497777298402
C          117.06207766433963        2.67164453745555       -1.02393479861202
C          115.80348687968500        3.23505555746440       -1.26799578630991
C          115.79606341290132        4.62088202559913       -1.80100733949650
C          115.20640784829349        5.65351015857570       -1.07244794413511
C          115.19904984072794        6.95224303047060       -1.56829171272083
C          114.58294493189989        8.06983198438845       -0.77073779089675
C          115.78430995318828        7.21450696143331       -2.80421147360063
C          116.37352673637609        6.19475675387882       -3.54433900162186
C          117.01635445108022        6.48705605683296       -4.87331211007861
C          116.38018356804761        4.89989684754098       -3.03536598135236
C          114.57735846996840        2.60457736257964       -1.05456166381276
C          113.29327118829040        3.20518641730928       -1.36755508074022
C          112.35299853860252        2.30419886528640       -1.01416071059585
C          113.06444801938929        1.15172840008352       -0.49794371911459
N          114.39603178739365        1.35504335968171       -0.54267874331768
N          117.30439999173623        1.40111131240671       -0.57402148331006
C          115.88633898676555       -4.65996412833989        1.64575011651875
C          115.30910225524779       -5.68180235905510        0.89402922081050
C          115.32609102887862       -6.99447946518443        1.35496012318030
C          114.69162016675148       -8.08959517196024        0.54071714227491
C          115.91910037230699       -7.27867015659801        2.58076256200246
C          116.49720872897710       -6.26833946106119        3.34469413404820
C          117.11943599486045       -6.58807465218548        4.67705393895798
C          116.47863570566875       -4.96118383012641        2.87179855301559
H          111.31773139853895       -2.44804255297679        1.02996408181695
H          113.20145539371060       -4.23562395891201        1.67019529029090
H          115.09454626590556       -0.76047935219793        0.19998050550161
H          118.52597144307957       -4.33184422874856        1.34633344627539
H          120.39764864695569       -2.50913243390228        0.70537240940411
H          120.36109289769686        2.53997786101475       -0.82962664462617
H          118.47735744678710        4.31725738385751       -1.49706714790325
H          114.76381224647947        5.43836021741326       -0.10608517740552
H          115.36032513071505        8.60805833704512       -0.22361124817376
H          114.07866482887910        8.78018464935630       -1.42664585962812
H          113.86344323252909        7.68315523864308       -0.04902553630262
H          115.77708076504101        8.22658210845300       -3.19576851716133
H          116.89207579044279        5.64658341073999       -5.55670287850040
H          118.08686972863404        6.65783291032347       -4.73806342127454
H          116.58422761570186        7.37879069079898       -5.32749805351208
H          116.82388594660456        4.09419449971363       -3.61014974667660
H          113.15268466840476        4.17842297629259       -1.80919347364830
H          111.28051741549974        2.38355469549919       -1.09367752764888
H          116.58404681335159        0.71950389456895       -0.36028133456665
H          114.86377982266013       -5.45097753409572       -0.06762879971852
H          115.14017303899861       -9.05602596462851        0.77115260517851
H          114.80301960664895       -7.89346560030882       -0.52600247754416
H          113.62392975409517       -8.14727909822585        0.76472001946113
H          115.93546229586876       -8.30087174275445        2.94477119847804
H          117.84351129738845       -5.82478167986481        4.96202485919525
H          117.61989998246199       -7.55643737833302        4.64748403318521
H          116.34640378381991       -6.63025851848052        5.44772993885416
H          116.91605213313227       -4.16359991402268        3.46220451490089
C          125.87370347123580        0.02161830734430       -0.01842454646982
C          126.50511777363573       -1.15538872301745        0.42925469486237
C          125.86196132263055       -2.32262950224689        0.91579623872258
C          126.83039650046246       -3.23855404796079        1.22554374467345
C          128.09344694587500       -2.65910896829716        0.92723551142602
N          127.84602159543854       -1.39557908903501        0.45994824940573
C          129.35430035206281       -3.24722120675235        1.08273836717450
C          130.57575589447131       -2.62599524686721        0.81775720732642
C          131.86178079364998       -3.29108007202031        0.92726535353133
C          132.79655317216708       -2.37105860350611        0.61090480147139
N          130.74949687422995       -1.33551691375642        0.41970393794180
C          132.07987676036430       -1.14972301891092        0.30144356312165
C          132.73137950787680        0.05095891066172       -0.04419777918798
C          132.10035736430152        1.25985062174076       -0.39466086966199
C          132.74387840375846        2.48016885737233       -0.72555086636865
C          131.77565991081070        3.39358798730665       -1.04325801002588
C          130.51253323621330        2.75345502677125       -0.92226536106384
C          129.25204863130764        3.31481756964898       -1.16074883085501
C          129.23755328134399        4.71384989808465       -1.65751508776165
C          128.62869857456360        5.72188951579429       -0.91063099561055
C          128.61179897320378        7.03215798185647       -1.37499080323654
C          127.97346041145160        8.12213125784333       -0.55702598955899
C          129.20762930148126        7.33107694447073       -2.59742787278941
C          129.81674666777525        6.33634799716124       -3.35523639838666
C          130.47048961173189        6.66707501500256       -4.66981623922424
C          129.83220379184232        5.02952473169058       -2.87797207317894
C          128.02982695856201        2.66797859061574       -0.97594900756832
C          126.74285925275080        3.26513423069640       -1.28370873251579
C          125.80810871907541        2.34728433237020       -0.96056631443953
C          126.52595914781588        1.18851313583319       -0.46738612766447
N          127.85587874013814        1.40410116183991       -0.49781488028089
N          130.75916893769153        1.46975734448996       -0.51468645435299
C          129.37630635360929       -4.64833732674722        1.57290810872552
C          128.77797179630386       -5.66532375158864        0.83112575992589
C          128.80513856069737       -6.98048812268139        1.28453625183991
C          128.14783972109797       -8.07015344616353        0.48115768620426
C          129.42970170570345       -7.27232751079181        2.49275179108890
C          130.02970568918971       -6.26713429364635        3.24644990668730
C          130.68621678279882       -6.59389943551269        4.56051035044102
C          130.00074929111003       -4.95755280946667        2.78106612731852
H          124.79480377530145       -2.43661971131221        1.01805180034000
H          126.68509576853383       -4.22594228001316        1.63244723644063
H          128.56416397874514       -0.73513165876794        0.18185470293058
H          132.00691625020718       -4.32469314259653        1.19660755689850
H          133.86835055758607       -2.48409506364767        0.57652557048213
H          133.81118970749543        2.63197660579463       -0.71594210864805
H          131.92094191714349        4.42276247931010       -1.32840750932170
H          128.17798549729741        5.47843873410331        0.04520342876691
H          128.73453417471001        8.63770146792662        0.03315883508507
H          127.49069950469163        8.85719297031403       -1.20170896562295
H          127.23162878766502        7.71141213109880        0.12788803723416
H          129.19280448009360        8.35216808669238       -2.96458548152365
H          130.33935511728782        5.85251564135287       -5.38273617048307
H          131.54236452975908        6.81899248190594       -4.52347044258816
H          130.05199758902003        7.57939162809904       -5.09487786304703
H          130.29080646586894        4.24307374406349       -3.46754817044650
H          126.59679399304564        4.24817927844285       -1.70118509183701
H          124.73555927066680        2.41960423498293       -1.04565703390753
H          130.04089640301871        0.77708242979567       -0.33157665767678
H          128.30834934089231       -5.42905985524735       -0.11755584411184
H          128.59226416634419       -9.04030708988964        0.70369893021520
H          128.24275460445605       -7.87456881398093       -0.58727426550312
H          127.08364440043863       -8.11899691671747        0.72312426376743
H          129.45383853024842       -8.29651458476771        2.85066866286853
H          131.43344281492381       -5.84374676248175        4.81950659057291
H          131.16639915336143       -7.57204179930406        4.52053539624990
H          129.93649127040857       -6.61706637004599        5.35469440760682
H          130.45514594219659       -4.16388314778676        3.36387710871764
