278
 energy: -569.877651328171 gnorm: 0.000706951451 xtb: 6.5.1 (b24c23e)
Ni          43.36451250671254        0.07937199303980        0.01931114953285
C           39.97591263294414        0.20790072574828        0.07637588828419
C           40.62609628571960       -0.25251094329167        1.20245671489752
C           39.95018808486489       -0.71447448786907        2.37636671855044
C           40.90753786479782       -0.99123175041850        3.29211181145544
C           42.16750859909111       -0.68028192438589        2.68174757588670
N           41.98631685556406       -0.26929598020414        1.38526434982256
C           43.38659987700947       -0.72811762706400        3.34560313138699
C           43.39945588345131       -1.08831640993698        4.78308659744063
C           42.73487685267633       -0.28893971554536        5.71637286265707
C           42.74437748738197       -0.62247620477770        7.06072473516364
C           43.41994253195916       -1.76506885692437        7.45755713021115
S           43.43861850561964       -2.19124233238965        9.15812986243560
O           43.19937378896412       -1.03938162468968        9.97708678587206
O           42.10176586673459       -3.11292617301487        9.18256219014109
O           44.56570729822671       -3.02299782088520        9.46072879337687
C           44.09090143089312       -2.57555085389020        6.55630020560034
C           44.07925192827345       -2.22978841370816        5.21506743422558
C           44.59428308954138       -0.44314925312474        2.72161439440636
C           45.85400636043919       -0.40454208182723        3.40086314219350
C           46.80004008242235       -0.18200336061638        2.45714509051610
N           44.76424238643737       -0.20296843469649        1.37755190819366
C           46.11634233220006       -0.08135324707997        1.20714399452526
C           46.77577024011698        0.02470970295603       -0.02049565372925
C           46.09196950920954        0.13312979253967       -1.23467087224373
C           46.74861125203231        0.18209742801055       -2.50197223386284
C           45.78596705564345        0.39700353012273       -3.43066256078150
C           44.54451751183409        0.49254197404136       -2.72387805788595
N           44.74002593159910        0.28550575399732       -1.37754355107980
C           43.33357214820420        0.81265494600268       -3.32403566135227
C           43.32021396025965        1.12673453078507       -4.77217668643558
C           42.57801511300138        0.34065509033189       -5.65690347226617
C           42.56189131906233        0.63091253398459       -7.01128674176398
C           43.29214616673832        1.71618884990846       -7.46741401253987
S           43.26456660950331        2.09839309184008       -9.17840303850821
O           43.55760868002821        3.48417228540669       -9.40055181068498
O           44.56414273207072        1.23765970595718       -9.63503396767914
O           42.10340774989557        1.53572186165558       -9.80096992861078
C           44.03256300444893        2.51793775221755       -6.61383514855816
C           44.04544911260211        2.21574758251687       -5.26223279683976
C           42.13579868845307        0.86031988494894       -2.62209135553921
C           40.88229111287502        1.25151529454713       -3.19873446142005
C           39.94162732850660        1.08609887776175       -2.23997581769847
C           40.62126376704850        0.60160174366225       -1.07721140885707
N           41.97088514149004        0.50198050733793       -1.30815407662677
H           38.89343879610824        0.25433984885042        0.09596306735612
H           38.88005055867718       -0.81005388752122        2.46753943632068
H           40.78495228163782       -1.37271077759451        4.29272196697039
H           42.22229289339761        0.60693827100498        5.38600943280155
H           42.24162203373252       -0.00482483507469        7.79429420744112
H           41.91240502233402       -3.40373150247361       10.08294825110339
H           44.61419622665964       -3.45798614694291        6.90248853312847
H           44.58959805397877       -2.85489355804213        4.49167852544612
H           45.98636444268151       -0.52573903658551        4.46351274186399
H           47.86749220955885       -0.09570404519133        2.57985994542758
H           47.81041103218344        0.06486976777075       -2.64638364461713
H           45.89656311056945        0.48118407871131       -4.49936378137819
H           42.02162889384051       -0.50973270736818       -5.28040166705250
H           41.98981119439654        0.02896952858162       -7.70606052062520
H           44.80345905927935        1.45286832452472      -10.54472154596917
H           44.58158751476854        3.36618343464691       -7.00298317125193
H           44.60822212321676        2.83705014198173       -4.57538466592083
H           40.75305947000818        1.60979732076181       -4.20703753836770
H           38.88014653912450        1.26693356054347       -2.29620052519328
Ni          99.06600375365626        0.06585539756969       -0.00663223832000
C          102.45550279558316        0.20019475361399       -0.01914784055682
C          101.80250768576886        0.19644127030678       -1.23408361364298
C          102.47633711933452        0.20930843343843       -2.49664795436687
C          101.51741324379658        0.29714124563352       -3.44759687926631
C          100.25848859720531        0.35436340483715       -2.76303778396341
N          100.44192151311910        0.24966301358015       -1.40737054362240
C           99.03765787628788        0.55042128281872       -3.39577213088865
C           99.02389736000298        0.75319229765707       -4.86377960527928
C           99.68149559283022        1.84820332522905       -5.42971282587131
C           99.67376137972248        2.04064623841478       -6.80137477718218
C           99.00680145336936        1.12381274440284       -7.59758293718997
S           98.99260881051457        1.36189644668628       -9.33447616433275
O           99.22545372379051        2.73735565136329       -9.66346159942425
O          100.33443495393432        0.52117658906772       -9.69552191023419
O           97.87187590710838        0.69667075857573       -9.93071144617688
C           98.34220620207815        0.03085423592356       -7.06550987153032
C           98.35214377947057       -0.14914161836622       -5.69213865204187
C           97.83009701685010        0.57247486212070       -2.71013487240187
C           96.56759732350631        0.84717500904552       -3.32700833554260
C           95.62334330304212        0.69847649371317       -2.36728467232932
N           97.66322655805193        0.29894988036930       -1.37199192825976
C           96.31088778777251        0.33935031121043       -1.16788875089229
C           95.65439868404640       -0.00905294151145        0.01548307602816
C           96.34013350991464       -0.34393251024328        1.18619485575344
C           95.68529385371720       -0.75692311300894        2.38639119044601
C           96.64956338537178       -0.89422282777964        3.32792214600469
C           97.89023497049693       -0.55094030773862        2.70118697619696
N           97.69249870809024       -0.25427326766689        1.37209115823407
C           99.10312678237095       -0.47693635630630        3.37357797887647
C           99.12024738491705       -0.71614485407904        4.83608065035371
C           99.85490158314333       -1.77920030786351        5.36681633471473
C           99.87628406159496       -2.00605411959557        6.73315648822559
C           99.15895016351375       -1.15641210642771        7.55942132367845
S           99.19478125086768       -1.42802666052052        9.29130208256798
O           98.91614543122414       -0.21784821416671       10.00797331116815
O           97.88765902806173       -2.38484597390795        9.40968122856006
O          100.35222792391350       -2.18914295445597        9.65653101776730
C           98.42580428851842       -0.09059121215652        7.06329181610216
C           98.40735081043752        0.12398167383293        5.69504998478082
C          100.30060137633535       -0.18125644859978        2.73483632400979
C          101.55659643401307       -0.03686500980247        3.41194414634405
C          102.49599186375731        0.15680066339525        2.45729341489378
C          101.81292182014118        0.13902409068862        1.19963988251838
N          100.46289262452079       -0.03197468678788        1.38077204876705
H          103.53813442319012        0.24698688606484       -0.02261637246092
H          103.54628867138915        0.15526320042440       -2.61879462903816
H          101.63826442734485        0.31991254506069       -4.51840863842837
H          100.18770189931330        2.55949469926362       -4.78760463733708
H          100.17161168476063        2.89097294215614       -7.25020532797949
H          100.50622012762864        0.55679511552292      -10.64437010617492
H           97.82539340514167       -0.66230012836178       -7.71729093680852
H           97.84720685681982       -1.00298180885782       -5.25569902169971
H           96.43217237270744        1.12406843021298       -4.35967629096293
H           94.55481121700855        0.81455060804399       -2.44918501516412
H           94.62351450304119       -0.91756191538363        2.48038578510802
H           96.54088488731884       -1.20286119025952        4.35475367150303
H          100.40156357679867       -2.43736626022927        4.70163484139799
H          100.44276443875242       -2.82636161061364        7.15566778642575
H           97.64242489816387       -2.50095790999141       10.33569957875767
H           97.88682275518559        0.56119367999581        7.73936949240868
H           97.85007466117843        0.95903699744043        5.28686558912900
H          101.68815558814539       -0.07559961031969        4.48102165658383
H          103.55857785044860        0.29834125587501        2.57341649812403
C           48.18068163615091        0.01180265853730       -0.03563566355939
C           49.40457859292076        0.00495963331142       -0.04787390408521
C           50.74788433565704       -0.00652666437628       -0.05742154550817
C           51.97813831786083       -0.01182575075085       -0.06338570296392
C           53.31661439916880       -0.01879558799636       -0.06670174588022
C           54.54689981494807       -0.01919135450130       -0.06606256492429
C           55.89003708545263       -0.02074932810354       -0.06304966337926
C           57.11416295437169       -0.02070394210381       -0.05898018979341
C           66.74793036846235       -0.04023386816157       -0.00826356355602
C           67.97226570640933       -0.04269122676497       -0.00257917488139
C           69.31487733095599       -0.04490433279036        0.00197757892652
C           70.54538179605667       -0.04625269098098        0.00452443630289
C           71.88325726831749       -0.04665876535533        0.00550933740472
C           73.11378035918504       -0.04636072148215        0.00437061023165
C           74.45642219101043       -0.04528436256885        0.00153369773989
C           75.68077066659802       -0.04328559174028       -0.00147425195326
C           85.31569496676677       -0.07090295540499        0.02507596878296
C           86.53972587851115       -0.07491336653310        0.03209689076245
C           87.88307451258572       -0.07669156974844        0.03874474821267
C           89.11325571555106       -0.07484626546654        0.03857567206375
C           90.45193005985212       -0.06749401064272        0.04019512909481
C           91.68196451832040       -0.05740392203991        0.03709712832403
C           93.02548623996641       -0.04465657037135        0.03239750466508
C           94.24922407077402       -0.02998948733883        0.02589307339559
Ni          61.93130142522880       -0.02617493900775       -0.03956502376723
C           58.51835546171255       -0.02097941455647       -0.05449737952112
C           59.19031105878071        0.93330956467013        0.71560005652856
C           58.52341631025102        1.89390282947824        1.53513900740453
C           59.47775217233180        2.73314389522963        2.00586131442741
C           60.72420430623550        2.28623515303723        1.46283609533546
N           60.54082847835789        1.14984660984883        0.70894432231180
C           61.92886964410182        2.95952480650343        1.62024541055737
C           61.92993738885925        4.25378647115815        2.34142225202206
C           62.67686882416157        4.40522890321103        3.51229675507499
C           62.68414957448459        5.61306857520143        4.19023116217726
C           61.94040079718241        6.66535309421946        3.68164786760581
S           61.95921335532245        8.20237388426730        4.52563307334250
O           61.65090465195223        9.28257994977096        3.63467242335812
O           60.66730408519264        7.96634058205587        5.48063456682575
O           63.12540839947345        8.30634680067638        5.35087149755395
C           61.19404874187480        6.54722012124518        2.52038122724776
C           61.18956873791470        5.33333178236422        1.85328831272293
C           63.13421305817661        2.47109930827287        1.13268384373873
C           64.38020341815802        3.16908667712119        1.22683040499543
C           65.33613911873283        2.32511019006993        0.76820611031662
N           63.31954446058062        1.22981898117079        0.56825653653912
C           64.67058581511061        1.12093597200264        0.38619970607753
C           65.34432019342516       -0.03654740974294       -0.01611362710286
C           64.66940068424140       -1.18973533606791       -0.42866715332046
C           65.33290623949856       -2.39697882209569       -0.80442437366617
C           64.37858011289509       -3.23330004970997       -1.28018987313937
C           63.13575561874966       -2.52778988684528       -1.20194513798774
N           63.32052102873960       -1.28965950245409       -0.63067438190234
C           61.93432892205578       -3.00720630745594       -1.70792886257323
C           61.93859630782250       -4.29740778246380       -2.43617732045294
C           62.70205806356692       -4.44619689421608       -3.59669213859416
C           62.71246331721299       -5.64986380788462       -4.28195862492064
C           61.95518739355217       -6.70080849084414       -3.79094962652742
S           61.97666111615260       -8.23263108380513       -4.64411277589051
O           61.66499587731574       -9.31813826131683       -3.76080444982384
O           60.68766916650114       -7.99031613105071       -5.60199201133579
O           63.14529247653032       -8.33240977068185       -5.46646420045635
C           61.19260480303838       -6.58548952788034       -2.63997095636056
C           61.18515619752122       -5.37570170056901       -1.96554952989501
C           60.73103425838870       -2.32910610611624       -1.56115632939786
C           59.48826531904040       -2.76927530242013       -2.11794639176701
C           58.53206569212874       -1.93025214525546       -1.65060715763529
C           59.19448431324415       -0.97533835642947       -0.82092659577155
N           60.54426522035403       -1.19550737983309       -0.80371169874508
H           57.46067731269152        1.91326021490159        1.71462242326367
H           59.35820137722440        3.57846272175535        2.66361521764400
H           63.24415905808247        3.56622260733834        3.89792874601565
H           63.26010410748555        5.74200519517957        5.09794459173841
H           60.40324330364399        8.79698372085055        5.89472004094734
H           60.63416575992456        7.39438452962563        2.14453889880285
H           60.62240369588224        5.22310076500039        0.93642322508297
H           64.49857882133072        4.17534790671230        1.59400063470628
H           66.39900671016389        2.48786817025206        0.69223253573984
H           66.39345665453553       -2.56685195839317       -0.71319447459838
H           64.49602056476162       -4.23915545947750       -1.64877354037858
H           63.27985841294664       -3.60818268192071       -3.96862131636581
H           63.30099204981725       -5.77659291023549       -5.18186404669405
H           60.42754842560929       -8.81781958797860       -6.02477136480963
H           60.62251153941477       -7.43171735223853       -2.27764918701690
H           60.60531434770576       -5.26788934346750       -1.05637737211165
H           59.37211770079656       -3.61050769691926       -2.78151426841000
H           57.47087313844342       -1.94570092209804       -1.83937467032911
Ni          80.49800426384070       -0.04542024530276       -0.00883672387147
C           77.08445210708150       -0.04205076076411       -0.00567777018973
C           77.76007671075945        0.92375227162916        0.74674588987927
C           77.09621403769486        1.89522858729709        1.55586849135599
C           78.05233798178809        2.74049347100207        2.01168146753424
C           79.29686844467544        2.28564898644390        1.47063074790593
N           79.11037877030174        1.13971862428345        0.73192563541900
C           80.50288670305520        2.95799977393532        1.61948713611715
C           80.50480943576430        4.25939318635662        2.32782608337535
C           81.24619842720116        4.42034964135331        3.50086910597597
C           81.24730021466890        5.63267653483444        4.17089266161456
C           80.50336952181230        6.67968575524655        3.65193038172776
S           80.50785980377073        8.22021023373240        4.48976517821705
O           80.20238666311526        9.29539097862851        3.59185189953582
O           79.20799495931831        7.98133154342681        5.43315857254647
O           81.66560313222578        8.33298990783533        5.32566894814116
C           79.76442372622193        6.55282048294575        2.48684163109780
C           79.76603033881970        5.33458379687345        1.82777127533559
C           81.70743906356616        2.46051491870891        1.13898329375986
C           82.95567208855518        3.15475621159117        1.23057859453077
C           83.90981230898353        2.30303574407463        0.78277258642644
N           81.88953531899062        1.21347590387549        0.58666480243594
C           83.24085980019285        1.09815034481452        0.40881263521242
C           83.91126487377642       -0.06374730339974        0.01471087222770
C           83.23402697760106       -1.21587247237877       -0.39564540321085
C           83.89520597412766       -2.42407153734333       -0.77265748640132
C           82.93928357787225       -3.25804326813914       -1.24924982829704
C           81.69759804069118       -2.55090482129966       -1.16856949775400
N           81.88454642109015       -1.31341450904895       -0.59729101622633
C           80.49405369565112       -3.03134934875768       -1.66891933643755
C           80.49467493272392       -4.32110738702052       -2.39812100298065
C           81.24726408732592       -4.46684047895495       -3.56603114538370
C           81.24803168591612       -5.66758476326527       -4.25656104298828
C           80.49258934452018       -6.71863796242689       -3.76303254798550
S           80.49614584158698       -8.24464442139072       -4.62693144731459
O           80.17933475187877       -9.33330555882578       -3.74947020503036
O           79.20476001540854       -7.98212280635392       -5.57568433171430
O           81.65917695195813       -8.34948564415363       -5.45664463579300
C           79.74298571655760       -6.60718321798912       -2.60320877893830
C           79.74510732563262       -5.40033837579543       -1.92348590778055
C           79.29075329593857       -2.35539861275375       -1.51522914404667
C           78.04445029276866       -2.80096519594526       -2.05999452902961
C           77.08986003663485       -1.96367179378032       -1.58661604725138
C           77.75686779591774       -1.00346556649715       -0.76675839655274
N           79.10708952136345       -1.21968000299494       -0.75980792036138
H           76.03416465322289        1.91707685983728        1.73906798160611
H           77.93522961905234        3.59441990433282        2.65863747474843
H           81.81270514157821        3.58490747281470        3.89527410480712
H           81.81770495394592        5.76867527418012        5.08108564014172
H           78.92968123019551        8.81372749799460        5.83418358310333
H           79.20453244971041        7.39623551173465        2.10270195075348
H           79.20362592813784        5.21683133660774        0.90890521565564
H           83.07648329964969        4.16377200798795        1.58930324225596
H           84.97352508409551        2.46108522283705        0.70873262543790
H           84.95557565459669       -2.59561651130095       -0.68240198876193
H           83.05453961368067       -4.26351648776703       -1.61958322642314
H           81.82296867280193       -3.62837458480034       -3.94015760232602
H           81.82688642356783       -5.79163767079003       -5.16310260733806
H           78.93766563831912       -8.80112250623167       -6.01045708022919
H           79.17451578009589       -7.45366681967320       -2.23896036400570
H           79.17473128035263       -5.29516226188785       -1.00802528234055
H           77.92484947862582       -3.64445712799231       -2.72002889949785
H           76.02714970384018       -1.98278281272678       -1.76621594206595
