446
 energy: -784.431783082565 gnorm: 0.000567705587 xtb: 6.5.1 (b24c23e)
C           94.08185083669456       -0.10963866914999       -0.00527548202609
C           94.70218783744041       -1.31818301335481       -0.29383631229855
C           94.06179731142549       -2.55062084162206       -0.60512588623159
C           95.03259839729895       -3.48998034887331       -0.80919927752832
C           96.29779275493961       -2.86407650713390       -0.61725630834968
N           96.04769372728228       -1.55478302152343       -0.32047914789734
C           97.56731811529531       -3.44340594828006       -0.72457303072384
C           97.61593942005831       -4.89110058053948       -1.03525926848971
C           98.25117371305886       -5.34221895206743       -2.19667449584423
C           98.29366771892751       -6.69133107169417       -2.49007625783969
C           97.70696420154196       -7.62237333610291       -1.62640640527176
C           97.76904921661934       -9.05707679055001       -1.95989623994499
O           98.30043488873285       -9.49157500422111       -2.94954555763231
C           97.07440379064775       -7.17358533147246       -0.46456288652314
C           97.02689784445141       -5.82161326812878       -0.17443890032774
C           98.77662612670866       -2.76146368324281       -0.56218209306974
C          100.07990145165559       -3.40105047526193       -0.60356389144590
C          100.99045903990582       -2.42531870126568       -0.40841828055911
N           98.91670645805951       -1.42938839106100       -0.32438481881502
C          100.24252538624792       -1.19391338018047       -0.24091194153528
C          100.86581735520507        0.05414181343041       -0.04748351202889
C          100.21905109047513        1.28653840620639        0.15688189174899
C          100.85064225330009        2.54717298664210        0.32798163736737
C           99.87561561443613        3.48311546559133        0.53399276766277
C           98.61738163547930        2.81951076374954        0.50408291887316
N           98.87618346499949        1.49720347589280        0.26034746885792
C           97.34978301537836        3.39034170522780        0.66436239882270
C           97.30408357083316        4.83995058054619        0.96294237289281
C           97.92496238360035        5.34672023019040        2.10924195622345
C           97.87866975060197        6.69868700477709        2.38879245948774
C           97.21549539549365        7.57764783061086        1.52593678422831
C           97.18421514383687        9.01665371160720        1.84438581119027
O           97.70745640694068        9.49820655320598        2.81654328189385
C           96.59685524704237        7.07347734528682        0.37927353309460
C           96.63903921567470        5.71870041819786        0.10271042135377
C           96.13985681090479        2.69375063406607        0.56697808062448
C           94.83122461855135        3.28810220590248        0.79395498997174
C           93.92766650380267        2.30628447587517        0.60271134498741
C           94.68328748729390        1.11063058429727        0.27216823277385
N           96.01231344245096        1.37916599171704        0.27097343511819
H           92.99676635163334       -0.13095934362373        0.00284756020994
H           92.99390852129383       -2.68572444531580       -0.66849169589334
H           94.89085033717818       -4.52414972716804       -1.07803154446783
H           96.76667698862623       -0.85997173346335       -0.14857407481216
H           98.69579290702949       -4.62208719587642       -2.87417812799313
H           98.77929920039676       -7.04841484260799       -3.39189130831254
H           97.27915135429595       -9.71989949227564       -1.21502629187243
H           96.62085523800810       -7.88930244950742        0.21344073284121
H           96.54824439020901       -5.47852504099213        0.73596393958529
H          100.25231101508868       -4.45540414617795       -0.74652268473610
H          102.06496685121550       -2.50563411863795       -0.37053239986199
H          101.91604612781644        2.70777772117287        0.29181428483428
H          100.01236249201330        4.54159726549243        0.68373799506430
H           98.16120599207770        0.78282871129517        0.17003603525879
H           98.42668987661703        4.66677667520208        2.78857125301344
H           98.35190839700309        7.09794809862343        3.27946583133334
H           96.63180847843697        9.63536598451693        1.10538700013248
H           96.08374218449600        7.74876783274317       -0.29770063044415
H           96.17047685382838        5.33280138907333       -0.79557405049433
H           94.65363324925576        4.31363342296379        1.07499876814859
H           92.85278392946847        2.35299361600296        0.67985059882951
C          181.53055827098342        0.07768421298056        0.00945186808542
C          180.91242012731192        1.25066191188263        0.42260173086318
C          181.55502998035223        2.46164125059382        0.80537245557746
C          180.58654462203697        3.36289893408066        1.14627656366738
C          179.32072853455372        2.72773062664806        0.99268820317161
N          179.56799708183408        1.46090829853308        0.54669477044990
C          178.05299001122231        3.27685498707367        1.21629105316773
C          178.01009615878698        4.66958847239981        1.72008081221240
C          177.37884713446837        5.67228905000832        0.97737392029524
C          177.34101916625212        6.97047095952085        1.44809594572628
C          177.92871576136784        7.29605991680615        2.67510870769667
C          177.87106074903969        8.68767274571944        3.15821782494024
O          177.34371274363744        9.58521847798362        2.55251890382630
C          178.55833615307193        6.29515134226713        3.41888081531363
C          178.60110870149188        4.99643277624417        2.94392971879500
C          176.84176617270825        2.61260269186744        1.00340681076148
C          175.53989994964644        3.18501319458095        1.29828366659573
C          174.62744318719783        2.24759227056731        0.97016853961151
N          176.69892480523444        1.34668384312340        0.52631045808933
C          175.37284999892773        1.10100850252234        0.48667137084458
C          174.74725351423388       -0.08348459253737        0.05260566323267
C          175.38960490900388       -1.25352413735090       -0.39038951914770
C          174.75210686378475       -2.43312117303623       -0.85947862059549
C          175.72455906557414       -3.33061729075868       -1.20214198359797
C          176.98772498196718       -2.72930058202682       -0.94217903857596
N          176.73327218706342       -1.47330425745280       -0.45969090010829
C          178.25480077896077       -3.28037258606105       -1.16275466463734
C          178.29858966041897       -4.66535788448654       -1.68523182530859
C          177.73021349416280       -5.71766818493589       -0.96036473803502
C          177.77173173790331       -7.00748662147959       -1.45336277822706
C          178.37719616074105       -7.27535436835477       -2.68565869631063
C          178.40248740331239       -8.65910468718826       -3.19317872178561
O          177.92429849356256       -9.59599618480439       -2.60636423723396
C          178.94478043414432       -6.22511903747323       -3.41133693380447
C          178.90785079672131       -4.93470007711473       -2.91442365812588
C          179.46684993675058       -2.62069657166927       -0.92939444833674
C          180.77690942220235       -3.22997420677967       -1.10205632410875
C          181.68259688442473       -2.28762116192801       -0.77246863410597
C          180.92734200958506       -1.10755830254514       -0.38919782847891
N          179.59653127077445       -1.34829548691819       -0.48677482111825
H          182.61566428737055        0.09862591626984        0.00156057456488
H          182.62266163548190        2.61270105759391        0.80818538864661
H          180.72991911694643        4.38199595927835        1.46686710447941
H          178.84765652741874        0.77904689801715        0.33347913707334
H          176.93340568143148        5.42564945714567        0.02029728718013
H          176.85800225525875        7.75487288384294        0.87536926212186
H          178.36089717282857        8.84910966272472        4.14221971324224
H          179.01315252339876        6.53797729625167        4.37378225901306
H          179.07765988254718        4.21931072421913        3.53100076737679
H          175.36935023140856        4.16494864592261        1.71350477532916
H          173.55324136372607        2.29834066953027        1.04732022578538
H          173.68448399533122       -2.56514704186143       -0.92956007986518
H          175.58242843363237       -4.31812170605091       -1.60968064440081
H          177.45173266457277       -0.80347929467424       -0.20503790205786
H          177.27311163858906       -5.51665322054488        0.00200703884133
H          177.33850634878721       -7.82977072081987       -0.89405879311579
H          178.90555341101685       -8.77474766483173       -4.17690609935176
H          179.41342552690270       -6.42331553014375       -4.36982746790284
H          179.33620889742861       -4.11964089512811       -3.48678941395530
H          180.95411418239610       -4.24541330262493       -1.41788864064408
H          182.75906079316445       -2.35646830673664       -0.77067089678451
C          103.49521262165221        0.10562377892064       -0.06010893534874
C          102.27399914256422        0.08382711848465       -0.05557806374111
C          104.84624672737955        0.11468667326951       -0.06383220217218
C          106.06777954074052        0.11358308246093       -0.06082127963387
C          116.95477592258045        0.00581227492556       -0.01707321256675
C          115.73227492373459        0.01901828704798       -0.02871241823975
C          118.30309245232819       -0.00142795467079       -0.01113289183004
C          119.52562858906781       -0.01346451749219       -0.00833781799799
C          130.40845774493212       -0.02732192391471       -0.01286271054815
C          129.18576716299958       -0.02399196715065       -0.01754913991404
C          131.75662966640132       -0.02572648925729       -0.01051536914589
C          132.97931916045235       -0.02728089603437       -0.00537991494788
C          143.86142329650710       -0.01534824850843       -0.01527196075711
C          142.63872988550924       -0.01552425814645       -0.01788582435320
C          145.20956244250584       -0.01232443156353       -0.01567644284880
C          146.43224318962888       -0.01181256969413       -0.01087380928236
C          157.31376822527642       -0.01969960038414        0.00276859473293
C          156.09114034247787       -0.01465171480507       -0.00510931507506
C          158.66206223677528       -0.02430753357394        0.01048348345879
C          159.88457891068114       -0.03357756417254        0.02161316539606
C          170.76572810832147       -0.13619959181247        0.04884977903887
C          169.54439659693722       -0.13374992481164        0.04336809806487
C          172.11722001216856       -0.12879355171566        0.05160170854613
C          173.33832280134430       -0.11048907065871        0.05425383181106
C          107.47543348583230        0.10319998132025       -0.05692406588199
C          108.11047463155911        1.05449219732248       -0.87659661795969
C          107.46957774346215        1.99182556157878       -1.72780570838808
C          108.44055318574931        2.72486975357743       -2.35323100023930
C          109.70361868964706        2.26271960946072       -1.89241556898954
N          109.45349502435067        1.24821284019712       -1.00834353716148
C          110.96903598955053        2.72412662584551       -2.27673572992125
C          110.99732628496258        3.84962676405053       -3.24093806022369
C          111.60111813969530        3.69086029995830       -4.49223235004355
C          111.62551293632045        4.73771192896994       -5.39320792006212
C          111.05159968574709        5.96975472813939       -5.06237290291907
C          111.09384137924648        7.07266635389117       -6.04013551808500
O          111.59961003445520        6.98177553261606       -7.12924683430052
C          110.45046146947445        6.13057784411034       -3.81176885267978
C          110.42121433810449        5.07983352866463       -2.91205001879927
C          112.18904258583937        2.21313313288199       -1.82993652639572
C          113.48118132189941        2.76398108160924       -2.19875706401481
C          114.40959364504391        2.01380820085283       -1.57040413306965
N          112.35371831040675        1.16274169815159       -0.97965964763380
C          113.68322188207158        1.01267063840026       -0.81406029700980
C          114.32779779363159        0.03183913554144       -0.03368898865080
C          113.69131085968199       -0.95016826933042        0.74978399210399
C          114.33143566973980       -1.96089746707372        1.51268785383706
C          113.36024311483700       -2.70042712673774        2.13011679958866
C          112.09810842114480       -2.15483567283322        1.76874173736762
N          112.34906770488634       -1.10550999471644        0.92597395971015
C          110.83328493095136       -2.60593686667884        2.16544191221751
C          110.80787958033825       -3.74758581314238        3.11046780581600
C          110.19769597730995       -4.95139182513686        2.74702162223896
C          110.17777330603997       -6.02028936440680        3.62515169271188
C          110.76395729133677       -5.90483136528651        4.88786831035546
C          110.75608645667275       -7.02838146465285        5.84277275830345
O          111.25201245219117       -6.97746845197035        6.93902828333573
C          111.37148192835461       -4.69908261321314        5.25345417575860
C          111.39589918743815       -3.63390403832378        4.37405523181248
C          109.61295431655167       -2.06981880909618        1.74850054197087
C          108.32124099419744       -2.52631853546265        2.23047148018786
C          107.39275083748457       -1.77169040701487        1.60782868017276
C          108.11852115708871       -0.84993358079477        0.75589723773746
N          109.44880575707765       -1.04578544971906        0.86786194790357
H          106.40187190576745        2.08121067978959       -1.84657488547487
H          108.29611253062131        3.50920985963041       -3.07807462812831
H          110.17073598218303        0.71217715807774       -0.53132004895361
H          112.03595387636348        2.73344593267790       -4.75593340879872
H          112.08694314053781        4.62075300476500       -6.36789481618475
H          110.61471771176309        8.01153609817949       -5.68936030770975
H          110.00683578040741        7.08436461123154       -3.54514665991667
H          109.96651466520461        5.21281173968620       -1.93677076195963
H          113.63500740494126        3.61786671149892       -2.83827194338422
H          115.48308676401764        2.11181178504929       -1.59392594365606
H          115.39864742983188       -2.10124446145974        1.57105975902911
H          113.50381881126341       -3.55464478978865        2.77126831016861
H          111.63258055898010       -0.53300206458265        0.49218479356316
H          109.75361366069531       -5.04806441992433        1.76274727255442
H          109.70739339519928       -6.95325077940627        3.33213360386281
H          110.24929774455777       -7.94269409875332        5.46705693353069
H          111.81992865428859       -4.61677011520664        6.23771349992503
H          111.85555889729629       -2.69636566925243        4.66599948262770
H          108.16778193090883       -3.30703080163166        2.95761239153256
H          106.31962148138616       -1.80860652115810        1.70501702884041
C          120.93003551129672       -0.01543298987987       -0.00861557400240
C          121.55422533686287        0.91056806638213       -0.86722025936720
C          120.90121083543987        1.81289844622120       -1.74593799180084
C          121.86254093874805        2.54454210772958       -2.38828804351295
C          123.13085757586316        2.11567992733562       -1.91118861807260
N          122.89399624837866        1.11973910575122       -1.00222323723386
C          124.38978985354690        2.59223995966592       -2.29867198833988
C          124.40164941599762        3.70510637612883       -3.27751851112671
C          125.01685658867778        3.54454381511153       -4.52294421892297
C          125.02596687196463        4.58163292609096       -5.43550496957813
C          124.42457232205980        5.80519592559729       -5.12266114982023
C          124.45217595091806        6.89815752806600       -6.11231152707091
O          124.97235109957418        6.80692935346820       -7.19449433185355
C          123.81115948698339        5.96757120324577       -3.87827466905931
C          123.79770589897814        4.92675914690064       -2.96678442416769
C          125.61619012920760        2.10835008554109       -1.83973806716296
C          126.90113397159730        2.67215564661345       -2.21341838260453
C          127.83877464000990        1.94176806745901       -1.57537480485448
N          125.79379220599066        1.07151462005635       -0.97523802292803
C          127.12493044777528        0.94063300706347       -0.80737477979797
C          127.78152326931057       -0.02453321924735       -0.01740256924829
C          127.15733838341716       -1.00173623319824        0.78232460678783
C          127.81002069320064       -1.99894736805283        1.55193841775818
C          126.84866094351997       -2.73369946057241        2.19058144575532
C          125.58066057139979       -2.19782020980591        1.83639226482151
N          125.81772309091075       -1.16072046065058        0.97476211095486
C          124.32184059760300       -2.64324236387470        2.25975028648777
C          124.31253498273922       -3.76583140895634        3.22743585002787
C          123.69444813570693       -4.97565693184844        2.89889080505748
C          123.69268661419272       -6.02846929041297        3.79650739641759
C          124.30571480582879       -5.89070566302518        5.04410916368637
C          124.32089986071250       -6.99783971167975        6.01814906570028
O          124.84546085082484       -6.92886493794045        7.09990620300783
C          124.91993540068850       -4.67848447784913        5.37541792460542
C          124.92567576122346       -3.62923671396699        4.47678111280366
C          123.09548682693908       -2.11804926718553        1.84841414288179
C          121.81108051451105       -2.56102288360824        2.36081953581733
C          120.87326443085131       -1.82673129210659        1.72735856782682
C          121.58655336702019       -0.93168864602351        0.83757287915872
N          122.91757649732288       -1.11986390704034        0.93972925217717
H          119.83265739262447        1.88283938061093       -1.86975172789235
H          121.70786631812906        3.30665097463698       -3.13439262579905
H          123.61811110485610        0.60930077262678       -0.50784739862995
H          125.47264468646256        2.59327496857500       -4.77312505202427
H          125.49642471718268        4.46329799203616       -6.40569762333496
H          123.94790410926950        7.82951010120326       -5.77720899961175
H          123.34581215224583        6.91476934936644       -3.62558074762732
H          123.33360050986519        5.06123730654637       -1.99613911328216
H          127.04439227703777        3.52018554485923       -2.86308709996087
H          128.91090189161653        2.05363043758465       -1.59920140575016
H          128.87836618331147       -2.13427132921320        1.60045383020207
H          127.00312406785935       -3.57841596717242        2.84169251744758
H          125.09392603753687       -0.59774132643980        0.54065554029764
H          123.23035105955906       -5.09015928367411        1.92581013613284
H          123.21646333274086       -6.96645910897422        3.53017254504830
H          123.80361801942698       -7.91765667966672        5.67137211153654
H          125.38889724454309       -4.57861127862193        6.34842376545658
H          125.39079498269588       -2.68658599508445        4.74241070870365
H          121.66851419814284       -3.31911583357348        3.11368568956491
H          119.80143235708677       -1.86183632000762        1.83920405971691
C          134.38354121594031       -0.02400699250052       -0.00603836952605
C          135.00524199040376        0.90385299993313       -0.86441113426281
C          134.35006340737982        1.80510845300931       -1.74263361908799
C          135.30964838625107        2.53996829300859       -2.38395438069682
C          136.57895703990465        2.11397658530127       -1.90691483957369
N          136.34443671787957        1.11673589616492       -0.99871671345357
C          137.83677720445365        2.59338203886290       -2.29419519327996
C          137.84648560579149        3.70680645510075       -3.27245726980609
C          138.46074022852383        3.54740947731315       -4.51849453804767
C          138.46844876988794        4.58510161511198       -5.43037017471924
C          137.86663749253231        5.80810504108015       -5.11614594782094
C          137.89305063632617        6.90179822012158       -6.10504617509420
O          138.41267573347358        6.81158729181103       -7.18756994943821
C          137.25405562115176        5.96924625134817       -3.87119470341477
C          137.24189425666668        4.92777607014749       -2.96041430420382
C          139.06428257925870        2.11142536416015       -1.83608102239558
C          140.34801597851211        2.67726712763942       -2.21071199824171
C          141.28731911513475        1.94789853150204       -1.57394288772564
N          139.24414845403041        1.07456393224212       -0.97211391590111
C          140.57566229100937        0.94556365916030       -0.80551299539852
C          141.23450732351563       -0.01848013244445       -0.01603946873303
C          140.61275309399318       -0.99611283160694        0.78509108460954
C          141.26781493057553       -1.99149075891062        1.55500518435785
C          140.30827206566315       -2.72725948548146        2.19530547222480
C          139.03909905589074       -2.19390175243806        1.84173060424896
N          139.27357515058225       -1.15715543527397        0.97901519483971
C          137.78120999160308       -2.64132996870931        2.26600327943411
C          137.77344386344521       -3.76343118141666        3.23419262189118
C          137.15466240854121       -4.97323359127105        2.90668028664271
C          137.15209707545517       -6.02525481575588        3.80517560751232
C          137.76531239060583       -5.88686327414042        5.05261414514597
C          137.77878242836249       -6.99291120131955        6.02791925276853
O          138.30383066237755       -6.92370181388043        7.10941228296779
C          138.38093139345483       -4.67499186724891        5.38259686059823
C          138.38727263316113       -3.62642252875069        4.48314029969541
C          136.55386483264439       -2.11885926880489        1.85437412927456
C          135.27037438951032       -2.56391239346787        2.36730497349374
C          134.33100273604609       -1.83294777721416        1.73236671051606
C          135.04243884238690       -0.93751416563065        0.84146467878940
N          136.37377280531081       -1.12227396799597        0.94420883146440
H          133.28135311256176        1.87221892408075       -1.86669765889179
H          135.15328596226357        3.30248013633731       -3.12930250329198
H          137.06977977046037        0.60775856347861       -0.50462607794728
H          138.91700069633103        2.59660990291261       -4.76959593405254
H          138.93820856998570        4.46772447436820       -6.40101735082329
H          137.38838336682633        7.83261259555032       -5.76904694385275
H          136.78840814888915        6.91601994050554       -3.61745898214716
H          136.77841255094944        5.06123894653273       -1.98932849822789
H          140.48945192109699        3.52574125322212       -2.86019278296257
H          142.35925371554742        2.06128491226807       -1.59886759106640
H          142.33643589263320       -2.12495871916766        1.60263340515464
H          140.46475734482738       -3.57105847198233        2.84712604952205
H          138.54834983906920       -0.59590909060532        0.54503352277296
H          136.69030905725378       -5.08818173779663        1.93377277438069
H          136.67489395404453       -6.96300893524812        3.53976125323645
H          137.25950530352844       -7.91207947422652        5.68239047199613
H          138.85018793796905       -4.57470502490095        6.35541801903745
H          138.85305154007497       -2.68389245591294        4.74804433388037
H          135.12925106298772       -3.32089407055841        3.12154762877215
H          133.25924114305371       -1.87051750590427        1.84405827239369
C          147.83645663858320       -0.00982503072851       -0.00974036175804
C          148.46089671572136        0.91554809092056       -0.86869701127312
C          147.80855147708274        1.81584659647913       -1.75004135853842
C          148.77030382835639        2.54799138102261       -2.39117869032035
C          150.03822350963952        2.12138863891862       -1.91083690621889
N          149.80060852561897        1.12632459263303       -1.00098301758181
C          151.29742744632605        2.59849111494284       -2.29623572111623
C          151.31070091300739        3.70925262099580       -3.27746333066460
C          151.92825868698810        3.54568938305567       -4.52134473673952
C          151.93846411787331        4.58030058533820       -5.43668317859155
C          151.33601478916248        5.80443662887190       -5.12813492328877
C          151.36457061783162        6.89458314633276       -6.12087389890356
O          151.88579575336348        6.80024784056913       -7.20228567566101
C          150.72051000024510        5.96990829654863       -3.88518901296025
C          150.70577219221491        4.93147472477400       -2.97097836840280
C          152.52337429899870        2.11611424825593       -1.83397026161405
C          153.80859467519917        2.68059199354033       -2.20557876972059
C          154.74556132353527        1.95125625088731       -1.56529093577466
N          152.69995281449980        1.08010422707166       -0.96848825699527
C          154.03103809241745        0.95005497155580       -0.79810770587962
C          154.68675767134405       -0.01493503387567       -0.00744626139237
C          154.06202771708649       -0.99309629881879        0.79076976380196
C          154.71430392978348       -1.99134510729695        1.55933794732714
C          153.75264113128534       -2.72695591249106        2.19663772359884
C          152.48493233596579       -2.19041172206365        1.84277234519355
N          152.72229467234334       -1.15228384796789        0.98258144607613
C          151.22560110408810       -2.63565418167132        2.26520530651847
C          151.21363682633526       -3.76002452732573        3.23060546772247
C          150.58938793792669       -4.96618760883847        2.89986714462403
C          150.58179352316790       -6.02052269654720        3.79556814543376
C          151.19539958507991       -5.88819018326792        5.04348491636326
C          151.20289046268564       -6.99662241427693        6.01609613398701
O          151.72699558453064       -6.93242614831673        7.09837100309762
C          151.81676760507216       -4.68010379341586        5.37660015113333
C          151.82811042970442       -3.62920367429345        4.47990054269961
C          150.00005270104111       -2.10908935942709        1.85356666128834
C          148.71505176425700       -2.55038728803618        2.36599101674305
C          147.77809464222889       -1.81683703233444        1.73051084821642
C          148.49253191285328       -0.92368348079621        0.83965816388296
N          149.82323932109847       -1.11188307633174        0.94340101620297
H          146.74014895651581        1.88408180501761       -1.87618575884289
H          148.61628682948745        3.30907533197708       -3.13847472786455
H          150.52438457074373        0.61725199846875       -0.50469755463371
H          152.38496403455724        2.59397282631748       -4.76812542912333
H          152.41061011578742        4.45955333022442       -6.40575903546399
H          150.85978855776432        7.82682696364349       -5.78902882137942
H          150.25444449763236        6.91763246259858       -3.63579782553987
H          150.23987573044997        5.06833507779495       -2.00152228363279
H          153.95243360379783        3.52832283277661       -2.85551207449871
H          155.81766209848311        2.06373695800312       -1.58722694833449
H          155.78260316194672       -2.12694772217522        1.60801509755980
H          153.90681992212876       -3.57260991127603        2.84659703145004
H          151.99858139713956       -0.58898616565220        0.54872577627476
H          150.12458725524803       -5.07639495195707        1.92662005732655
H          150.10017959655769       -6.95531516872963        3.52766840367749
H          150.67980903853052       -7.91258680792958        5.66775804638743
H          152.28635553954757       -4.58454508860119        6.34974064267843
H          152.29815257594367       -2.68953302715450        4.74743050121441
H          148.57140440437763       -3.30663970889268        3.12048841027241
H          146.70619484970169       -1.85132165963083        1.84182388951643
C          161.28897757796099       -0.04426082876051        0.02702852608867
C          161.92444473475760        0.88003358126565       -0.82450761090206
C          161.28385790517876        1.78862345243451       -1.70631285752039
C          162.25423303505471        2.52114236360959       -2.33344850258922
C          163.51621839921924        2.08739331178067       -1.84300528181904
N          163.26612248288762        1.08598715829311       -0.94346332488609
C          164.78049184089249        2.56783875860617       -2.20537319872272
C          164.80990176496627        3.68804383985127       -3.17498071291461
C          165.45409254877231        3.53678307334032       -4.40701633350415
C          165.47758631853176        4.57774082349521       -5.31475796065985
C          164.86263368068455        5.79663249915766       -5.01006556538770
C          164.90413962419754        6.89314557666733       -5.99524846450477
O          165.44188266166589        6.80671736458213       -7.06925678522486
C          164.22187313576825        5.95044309142044       -3.77841845329966
C          164.19342434981476        4.90540629274174       -2.87206981086380
C          165.99961850966264        2.07714159872382       -1.73155878063626
C          167.28997295579049        2.65249881379412       -2.06833319015856
C          168.21802111028580        1.90495062057439       -1.43660152187406
N          166.16326314124996        1.01871151003043       -0.89311759240692
C          167.49336514743860        0.88006450696859       -0.71086902545013
C          168.13623174891711       -0.12302469115589        0.03875824889412
C          167.50081479541473       -1.12676700578178        0.79273267916451
C          168.13990138977334       -2.16190088325622        1.52359629677649
C          167.16976426134335       -2.89707187793139        2.14773361614490
C          165.90946296041290       -2.32428162695282        1.82360488618585
N          166.15921926912512       -1.26808749714602        0.99002737511401
C          164.64617393702565       -2.74911036660439        2.25520407252615
C          164.62119908155569       -3.88441032083909        3.20709410616071
C          163.95580409348781       -5.06872816502027        2.87733218450251
C          163.93363729995485       -6.13084614529090        3.76356958416500
C          164.57341959493652       -6.02841987730965        5.00115782659608
C          164.56409911686049       -7.14470984508868        5.96460488116747
O          165.10337958497806       -7.10327094023849        7.04060402551939
C          165.23692287364528       -4.84255701879556        5.33305778576865
C          165.26294481125538       -3.78417621617004        4.44564384877094
C          163.42763197874925       -2.18944634495598        1.86604827327667
C          162.13877156208068       -2.60845410927898        2.38783864406515
C          161.21058111207643       -1.85409917731134        1.76394271107932
C          161.93443968617399       -0.96945057933270        0.87214608852024
N          163.26233126332647       -1.18190242798302        0.96547795547932
H          160.21694512845949        1.86164965461427       -1.84210645185187
H          162.11009481650950        3.28735447743537       -3.07746734939007
H          163.98329386846603        0.57003141473073       -0.44473568849737
H          165.92060304274358        2.58911146023622       -4.65105542083048
H          165.96984712746820        4.46610391185353       -6.27487306235073
H          164.39186865509518        7.82204321741993       -5.66555251664035
H          163.74635932927816        6.89418874203053       -3.53181501649332
H          163.70766977031499        5.03342798839977       -1.91119825703489
H          167.44220981450678        3.51940372939889       -2.69045751844938
H          169.29020220332418        2.01805207501559       -1.44013685080112
H          169.20579447955041       -2.31921975278071        1.55805916535119
H          167.31260129484147       -3.76507370361267        2.77028074410653
H          165.44303651504876       -0.67696482442113        0.58145465594838
H          163.46999425518482       -5.15619102612031        1.91205953563206
H          163.41939622960277       -7.04836955373261        3.49652944671462
H          164.01246085904111       -8.04365411120455        5.61593758880782
H          165.72701924671165       -4.77000636415036        6.29805431465686
H          165.76550686978933       -2.86134407140661        4.71279596380970
H          161.98692616316669       -3.36541364775516        3.14002676492201
H          160.13918691668800       -1.86865923172066        1.88433852497894
