120
 energy: -203.085229479978 gnorm: 0.000607623367 xtb: 6.5.1 (b24c23e)
Co          13.94732510399387       -0.06040338293093       -0.03084996768849
C           10.57340566847234       -0.06618174732261       -0.14219964409326
C           11.22429966334916       -1.26188463752300        0.07376183012594
C           10.55304996673831       -2.50689665375381        0.29210403457285
C           11.50722123472989       -3.46740856601144        0.28973931298368
C           12.75873270751924       -2.80846557658272        0.05282541885087
N           12.58090928768170       -1.44953387585491       -0.01236082663953
C           13.95449080113775       -3.46976767116383       -0.19202117193955
C           13.96135613309974       -4.94886565470476       -0.26603245284961
C           13.22033805447723       -5.61147901128254       -1.16883817777112
C           13.19685814707706       -7.11367143189742       -1.25999537728731
N           14.27775265399093       -7.71457677597977       -0.47649448261260
C           14.89539985304947       -7.02867210511391        0.53119917394301
C           14.80413240966299       -5.69126826878960        0.65706202620153
C           15.14582386133277       -2.78258640423932       -0.37570485478382
C           16.39269094422708       -3.41188775701977       -0.69118163701524
C           17.34292444334493       -2.44779297545239       -0.63403914098962
N           15.32377554931168       -1.43135230009362       -0.18841493843611
C           16.67313645050465       -1.23353605264396       -0.29033675042886
C           17.34158666403088       -0.05075879688300        0.03050119028356
C           16.65426707323385        1.12403113202621        0.34200217550178
C           17.30327397745539        2.33524338169933        0.73280199824692
C           16.34424076136744        3.29098288729911        0.78049724036756
C           15.11431418243211        2.66106248126121        0.40534819655001
N           15.30816874251338        1.31469990834907        0.19786496161913
C           13.92979876149485        3.34645444839237        0.17819881001168
C           13.92460572295463        4.82359982820460        0.28363819363024
C           13.13344628623552        5.46204767458289        1.16089652635799
C           13.09854989707744        6.96134144107267        1.28766450418447
N           14.20943034889531        7.58629582660379        0.56741611444413
C           14.88330676023970        6.92557025480122       -0.42054201179673
C           14.80912093708201        5.59044015087708       -0.57832237277509
C           12.75338021733819        2.68546170618086       -0.14796262420613
C           11.51699933357438        3.34420845477000       -0.45404111703103
C           10.57110177741795        2.37975589854442       -0.54433420708539
C           11.23248709285889        1.13342523380618       -0.30382877141073
N           12.57912607895766        1.32502760774666       -0.12137417798739
H            9.49032877518789       -0.06847214226449       -0.18044138120977
H            9.48771219357097       -2.61207451471789        0.42392422451107
H           11.38781724424786       -4.52934573848381        0.43183691843983
H           12.58804038335044       -5.09128504379654       -1.87885332800368
H           13.31415028684478       -7.43194024229505       -2.30561868971508
H           12.22143144489217       -7.50062881838636       -0.91159700102518
H           14.21817055233977       -8.71718056506067       -0.38003946631121
H           15.52135142018312       -7.63576972355684        1.17732797128829
H           15.33607469005877       -5.16310662664090        1.43543017821983
H           16.51369694707207       -4.45814406294945       -0.92092785470298
H           18.40519729978709       -2.53579180089706       -0.79647579962934
H           18.35841079280654        2.42661046670201        0.93488173588357
H           16.44949023940077        4.33227131915689        1.03860999228292
H           12.46736944645269        4.92256078328312        1.82410699554868
H           13.16819330623759        7.25366306514782        2.34520660597727
H           12.13750714798423        7.35309820448158        0.90654403851466
H           14.14722407495931        8.59027225766990        0.48914464079886
H           15.53643301857810        7.55025896093665       -1.02145337728121
H           15.38426009648693        5.08255777191845       -1.33929678196300
H           11.40146689063047        4.40862410535338       -0.57997149407768
H            9.51661524056380        2.48321635460064       -0.74611152345946
Co          27.33896589333644        0.06623440928282       -0.01682345786434
C           30.71297023226030        0.09565243951962       -0.12408169294798
C           30.06213826633743        1.21731928244611        0.34310002204230
C           30.73352122706440        2.38664697589794        0.82293617439889
C           29.77936172958107        3.32521532951173        1.02708866492462
C           28.52773531316696        2.73226505347240        0.65498735871285
N           28.70551258810659        1.41900827131047        0.29954773354839
C           27.33195835216999        3.43067576791373        0.55816856681152
C           27.32514668003150        4.89129344895603        0.80290724151452
C           28.06493318725673        5.73206476635723        0.06195656929656
C           28.08801393615998        7.21897855770210        0.29433911149389
N           27.00809646154711        7.63776446406684        1.18971341325492
C           26.39195348768431        6.75181461547785        2.02808486418193
C           26.48354226801567        5.41850392581321        1.86463410288531
C           26.14055868323992        2.79903134278377        0.23137913729555
C           24.89376601961450        3.48155251212044        0.05848773317345
C           23.94346872612319        2.52779368336242       -0.09302451824038
N           25.96253824964901        1.43915298211764        0.12370043763787
C           24.61316931909881        1.26798689535276       -0.01844173563138
C           23.94460492442587        0.04395603325233        0.04036851863719
C           24.63176213112651       -1.17042200491932        0.09205711975438
C           23.98245013722334       -2.43720380724237        0.21300487234444
C           24.94141568615730       -3.38102663569133        0.05482722329400
C           26.17164824702980       -2.68541968055891       -0.17522687676095
N           25.97793895880089       -1.32586970491312       -0.08893363269314
C           27.35635070380101       -3.30632013808705       -0.54318156068447
C           27.36137130206347       -4.77159223588357       -0.75775897174136
C           28.15206784451727       -5.58395917697789       -0.03804503018948
C           28.18708586146727       -7.07537860888830       -0.23708847486145
N           27.07656574677678       -7.53063205206771       -1.07546349070189
C           26.40314648965973       -6.67269122090404       -1.89837870099609
C           26.47734426813754       -5.33490414082184       -1.76502972497230
C           28.53302455419686       -2.59095031397390       -0.71913051551219
C           29.76950622871087       -3.16889691700414       -1.15885791111712
C           30.71537105442576       -2.20746854016668       -1.04041141388139
C           30.05389358849951       -1.04156933233027       -0.53868992033554
N           28.70721136140673       -1.26776290108741       -0.40184352920808
H           31.79603189686399        0.10621850768950       -0.16137823307726
H           31.79892236182199        2.46118016599219        0.97377304914434
H           29.89879690497416        4.33198349903076        1.39359119931013
H           28.69634143778035        5.37613580918851       -0.74374608684997
H           27.96913554228235        7.75353893537693       -0.65880929829425
H           29.06385418856680        7.52295061107097        0.71611933403689
H           27.06759637598269        8.59653757890415        1.49839216847395
H           25.76685018122749        7.20629318023843        2.79002955564872
H           25.95272631358291        4.73573522976960        2.51258150641306
H           24.77288103533289        4.55274917325713        0.05911668117184
H           22.88121736472294        2.64871019481079       -0.23285081311244
H           22.92716476031162       -2.56969859438582        0.38996094778566
H           24.83594036487898       -4.45343438687841        0.08309366082374
H           28.81777555573579       -5.19993241848976        0.72609500017893
H           28.11711751112393       -7.58860614022295        0.73264866236087
H           29.14832426361321       -7.37578736187531       -0.69328248903943
H           27.13899101641093       -8.49418760021101       -1.36809394438611
H           25.75032496482397       -7.15334544279711       -2.61997528223262
H           25.90255252896932       -4.67509918617117       -2.39913188710951
H           29.88515652890911       -4.18168247624054       -1.50967025309391
H           31.76990493716281       -2.26533754728156       -1.25942438481490
C           19.96793966118208       -0.01418301536300        0.05150143091243
C           18.74653879770179       -0.03852692796308        0.04373224545115
C           21.31828425593661        0.00321363197658        0.05330232028754
C           22.53965450086072        0.02927355414915        0.05130159596276
