195
 energy: -387.003867018770 gnorm: 0.000497457197 xtb: 6.5.1 (b24c23e)
Co          27.24964798402975       -0.00003685279807       -0.08312872609963
C           23.88031086809980       -0.00867394473083       -0.25293177286558
C           24.53381753207371       -1.21660830307262       -0.13678863197391
C           23.86948414326780       -2.48105214102541       -0.04467276384853
C           24.82997787639581       -3.43119176922247       -0.12667644056652
C           26.07859074326862       -2.74457109306418       -0.28917969882304
N           25.89293204394543       -1.38766635925821       -0.22209621755644
C           27.28013390356458       -3.36817189424068       -0.59888614629013
C           27.29525606601413       -4.82965706792669       -0.82622316052059
C           28.10398483200127       -5.65839188323956       -0.04248328960722
C           28.12297256896434       -7.02504189626925       -0.25323126301015
C           27.33079766684646       -7.56764654566522       -1.26106439191028
N           27.35072983810095       -9.00161768519027       -1.49029758723192
O           26.64845061088355       -9.43595604805951       -2.36695375473717
O           28.06877445376339       -9.66830157622778       -0.79012916349025
C           26.52085163043269       -6.75991649769927       -2.05425759375078
C           26.50464682879778       -5.39525756765632       -1.83138287247402
C           28.46545087259625       -2.65740719050558       -0.72220886035679
C           29.71296142328387       -3.23425613035614       -1.12458665960833
C           30.65487361399640       -2.27271714025551       -0.97169154305975
N           28.63369948538482       -1.33347814159355       -0.38985185938636
C           29.97982765812141       -1.11264705426165       -0.48229451515387
C           30.64236411963141        0.02720350775591       -0.02091577426973
C           29.94671319104386        1.14685061629625        0.44186112776947
C           30.58389347101434        2.29905305202562        0.99586542848151
C           29.61631444124544        3.23058201440715        1.17265102404662
C           28.39361631364915        2.64863804279275        0.70590191463377
N           28.59942104385729        1.34313905334668        0.32269319309655
C           27.20588751454640        3.34780079787639        0.54894647948018
C           27.17892899396413        4.79688386606156        0.84474367542895
C           26.31154292183146        5.29925846974495        1.81969904426871
C           26.28530912605657        6.65150909072511        2.10781418019684
C           27.12909770375900        7.51069917693615        1.40961731895592
N           27.10547059691270        8.93184842805292        1.70790399213689
O           26.34007319117848        9.31074147836828        2.55701790478603
O           27.85298607867166        9.64416318267654        1.08811583110766
C           27.99536164817751        7.03180411369971        0.43088593168227
C           28.01837144900627        5.67688991070633        0.15487511006476
C           26.04072029279524        2.72880247445291        0.11439973425011
C           24.80994011199315        3.41660680742566       -0.14746579458705
C           23.87511271457689        2.46766175380439       -0.38742088537205
C           24.53622927736632        1.20288820508293       -0.27558472234123
N           25.87631474057271        1.37616650751002       -0.03185967118128
H           22.79869314776469       -0.01116108449680       -0.31568311469202
H           22.80394918672195       -2.60459197142522        0.06446774029084
H           24.71696189097853       -4.50237600194032       -0.08618585456822
H           28.70792510422716       -5.22477514619269        0.74602077919989
H           28.74155098847461       -7.67610674466839        0.35268823686806
H           25.91738439147968       -7.20639681093875       -2.83536736815844
H           25.88867187049090       -4.75411480579211       -2.45105508017412
H           29.84025681036328       -4.24420029627579       -1.47867172137976
H           31.71495655515493       -2.33077356616147       -1.15843701129895
H           31.63743728187517        2.37081747844245        1.21255490086069
H           29.71186970357321        4.22469555797874        1.57778550482821
H           25.66799532885520        4.61813736386907        2.36415310990543
H           25.62264098178485        7.04912674455161        2.86705641699989
H           28.63774308420379        7.72232295067697       -0.10221043751501
H           28.67959163592626        5.29325671030786       -0.61331335227287
H           24.69144292460396        4.48799714708524       -0.14585006492453
H           22.82727846977168        2.59152396077527       -0.60928842443999
Co          64.28104875429142        0.04926290228831       -0.04216250376632
C           67.64804171710247        0.10734969154769       -0.18990420580753
C           66.99737727415011        1.18257791055663        0.37653553873698
C           67.66217082370082        2.31571084797325        0.94471276741730
C           66.70455764805948        3.23496209206642        1.21038452825061
C           65.45729189711564        2.66785913329032        0.78659982031634
N           65.63979397386433        1.38243586425264        0.34653647160227
C           64.26088487501423        3.37002004214690        0.71015974771197
C           64.25026679125200        4.81307281402908        1.03264420624513
C           63.41949569671569        5.30441883710623        2.04453904481524
C           63.40305949318679        6.65355893619165        2.34762647315493
C           64.22091221829758        7.52085752925476        1.62888647087662
N           64.20342073476878        8.93956717086910        1.93914892543520
O           64.93129851880505        9.65827813488350        1.30361400441780
O           63.46207021415229        9.31010772444324        2.81286337673628
C           65.05403080575940        7.05257847757404        0.61685715355525
C           65.06681151750198        5.70091289441588        0.32515912735744
C           63.07599128281618        2.75882050793059        0.32486482269674
C           61.83126546203211        3.44526107170478        0.14963147646535
C           60.88573883807016        2.49496774840854       -0.04715165731465
N           62.90270707612850        1.40400499384095        0.16296681308220
C           61.55623717637294        1.23442906172902        0.00058238694048
C           60.89187296128084        0.00545082743305        0.03758923421153
C           61.58783026812871       -1.20643030964194        0.06115874758189
C           60.95362278211927       -2.48195521064009        0.16743332830505
C           61.91692342565004       -3.41276940251260       -0.03627921944111
C           63.13398448172035       -2.69932273443856       -0.28400009879368
N           62.93061410850937       -1.34506066968411       -0.15038005016998
C           64.31225968353111       -3.28697198335956       -0.72145320040835
C           64.33230927567493       -4.73891736159706       -1.00082413489299
C           65.22650411628868       -5.57386607023722       -0.32338652214544
C           65.24802498776680       -6.93329268044195       -0.57568946004139
C           64.37125678410567       -7.46265464605976       -1.51839649032244
N           64.39067824036758       -8.88953336699921       -1.78848110692784
O           65.18684449007529       -9.56068444703704       -1.18356557383921
O           63.60908240954080       -9.31395000316979       -2.60042099505797
C           63.47630694905911       -6.64854075177790       -2.20680274711621
C           63.45921261929418       -5.29109672507302       -1.94325276411140
C           65.47508757508562       -2.54916218182576       -0.90766461937937
C           66.69983669837805       -3.08420024116551       -1.42763801436381
C           67.63996708290915       -2.12097430960168       -1.28303601779757
C           66.98726995893740       -0.99714013778638       -0.68293333618626
N           65.64694762694293       -1.24609848528374       -0.52003084636798
H           68.73002199909330        0.12776475545112       -0.24236639452639
H           68.72615950364546        2.38220287467649        1.10609215075712
H           66.81904835949663        4.21254054910286        1.64982109619316
H           62.79615736922388        4.61729714723110        2.60474194054443
H           62.76685402068627        7.04276288788505        3.13338651899432
H           65.67769321681699        7.74894991370907        0.06933755398063
H           65.70030071304488        5.32623909157662       -0.47032170492271
H           61.70767043233262        4.51562976825751        0.17434442725610
H           59.82617152675047        2.61932876978086       -0.20168827038363
H           59.90454890071909       -2.62909622714748        0.36709391986449
H           61.82175929164498       -4.48624692980187       -0.02445986956057
H           65.89515575125593       -5.15135487536218        0.41748426002505
H           65.93233790857042       -7.58898135245774       -0.05085545739161
H           62.80781749840561       -7.08466321282858       -2.93932403966871
H           62.77634531168470       -4.64491308305118       -2.48236412423507
H           66.81180530472206       -4.07108762499419       -1.84647882432910
H           68.68598952450864       -2.15305914466672       -1.54251796038212
C           32.04491461015637        0.04132239040870       -0.00833244274112
C           33.26971457809007        0.04693177067561        0.00661673840567
C           34.61114937976120        0.05385029882490        0.01571076346515
C           35.84257051096377        0.05557396204261        0.02497907201888
C           37.17886914517381        0.05466739949752        0.02974327729619
C           38.41051774003912        0.05349521899412        0.03305658440998
C           39.75133189683601        0.04773419508827        0.02970003682605
C           40.97680643422220        0.04088551506718        0.02510165056771
C           50.55954654034741       -0.01658785140229        0.07674062405817
C           51.78523037775582       -0.02615345150140        0.09098034730907
C           53.12535025479525       -0.03336400097982        0.10080646883475
C           54.35739384467502       -0.03608449098955        0.10417401075116
C           55.69298779918814       -0.03476775731284        0.09986964179130
C           56.92477826690302       -0.03077090634046        0.09024809019523
C           58.26538424306050       -0.02272836267588        0.07557386536571
C           59.49052369675358       -0.01137772651228        0.05909379091692
Co          45.76873965741285        0.01106055920672        0.01529665327208
C           42.37751018450708        0.03120026290569        0.01324728064774
C           43.05475443409503       -1.14478093637517        0.35156165819773
C           42.40182375519978       -2.35064565236558        0.75066658644799
C           43.34979347939075       -3.31980490680482        0.76156115375201
C           44.57644201765942       -2.70007860311633        0.36095887524304
N           44.39441920207965       -1.35003007176638        0.17896912124899
C           45.74892958837335       -3.38673886758437        0.07155133786428
C           45.73727586609994       -4.86491697553539        0.09769559055707
C           46.60598748915596       -5.56395255108596        0.94158743773014
C           46.59677275361333       -6.94651388061543        0.97045501495858
C           45.71466261272749       -7.63685377843615        0.14424469978984
N           45.70355237737365       -9.08949002487436        0.16806246788756
O           44.92287011269274       -9.65255906516046       -0.55525292451106
O           46.47586230347977       -9.64036443286668        0.90959044103665
C           44.84280741980616       -6.96033710547379       -0.70401233775845
C           44.85582597212081       -5.57759906479904       -0.72119597657977
C           46.93198690188878       -2.72664157024298       -0.23231783677138
C           48.15990782415134       -3.37781870968727       -0.57635839299585
C           49.12229704897405       -2.42326681680351       -0.56865722060861
N           47.12844502379439       -1.37139899974621       -0.10329703197251
C           48.47562837531176       -1.19332681564098       -0.23862014179916
C           49.15972917377466       -0.00795048714230        0.05151861720026
C           48.47917956421317        1.18838813686851        0.30120520060462
C           49.12863074826363        2.41958994651200        0.62081058082335
C           48.18149764247401        3.38709232405992        0.55146632697523
C           46.95878749168118        2.74036320700493        0.18249456177537
N           47.14195970207631        1.38063626153158        0.09908724922782
C           45.78989375592627        3.40439602663750       -0.16658508531440
C           45.80282874620426        4.88089637737009       -0.24351737264464
C           46.69079228790624        5.53393177451734       -1.10403510521078
C           46.70760451922143        6.91458267833874       -1.18099639946468
C           45.83311042300132        7.64939541265733       -0.38557956944758
N           45.84943430475902        9.10030806537063       -0.45948923631708
O           46.63648931295689        9.61080003088593       -1.21429943782122
O           45.07540912894726        9.70243422721787        0.23911678817697
C           44.94385641221123        7.01906632245325        0.47999361793761
C           44.93064183462177        5.63773976412114        0.54501713853754
C           44.60918952853697        2.72437480054152       -0.43454159756262
C           43.38503868527392        3.35019297447300       -0.83429347623979
C           42.42200529343084        2.39840973600443       -0.76973771910816
C           43.06469321088034        1.19423906947368       -0.34933863686631
N           44.41088295006220        1.38155963895202       -0.21350832711548
H           41.35138919480014       -2.43188233416246        0.97869188323874
H           43.23818063989378       -4.36096620796954        1.01675061626860
H           47.27859447285273       -5.01472846534985        1.58998800534242
H           47.26182586097388       -7.49679474704681        1.62509880043068
H           44.16837920886247       -7.52141345204385       -1.33963204134982
H           44.19080439366292       -5.03926976064319       -1.38634716957988
H           48.26330149080079       -4.42907558492051       -0.79007899754966
H           50.17790082583789       -2.52811633151661       -0.76022091867727
H           50.17654059559903        2.51683185098240        0.85414437657769
H           48.29115330304761        4.44388803149479        0.73244269329176
H           47.35836176130309        4.94988583286289       -1.72672150834646
H           47.38734196945243        7.42944381579805       -1.84923815897505
H           44.27675525272515        7.61429409953097        1.09184496412288
H           44.25247584431322        5.13550687366594        1.22495056288363
H           43.28450529948582        4.38422771863076       -1.12097978490858
H           41.36834956228261        2.48963712174033       -0.97827792978775
