136
 energy: -225.699247181034 gnorm: 0.000445548534 xtb: 6.5.1 (b24c23e)
Ni          17.61540914095764        0.03700528174485        0.00911126734630
C           14.23092924009329        0.10986791822720       -0.06789253279668
C           14.87653672483102        0.88822231896680        0.87133430988280
C           14.20076899980809        1.68659503481846        1.84706747659459
C           15.15424842407740        2.39721114042592        2.49579276834371
C           16.41105371522527        2.04513546035931        1.90366344872307
N           16.23406078262951        1.08064805561140        0.94318732846433
C           17.61900925904090        2.66296340360172        2.20935935594915
C           17.62540295387110        3.79743187430785        3.15892605656054
C           16.85750544822348        4.93988136073502        2.91526976783167
C           16.87375830465518        6.00400716341975        3.79669135229430
C           17.65256495994251        5.95376069861931        4.95970607723544
N           17.67814998697632        7.06720316877606        5.78496217778662
C           18.07426938511243        6.92790435975669        7.17941651729539
C           18.42402431439174        4.81442323724108        5.20733969768189
C           18.40716263473140        3.75611437083035        4.31519943141106
C           18.82321644592482        2.25538106621776        1.64688806460839
C           20.07501689274495        2.91260821176440        1.87006137729946
C           21.02719437887962        2.15914882169678        1.26746908443077
N           19.00316247903401        1.13718923281320        0.86425865403056
C           20.35458339412438        1.05127762639405        0.66910411208787
C           21.01923319259820       -0.01739548854837        0.06119230160693
C           20.33909331662547       -1.07155800762887       -0.55539825341025
C           20.99268250904391       -2.20947329349319       -1.11713369797683
C           20.03454596914061       -2.94165767737386       -1.73638398415857
C           18.79969363084019       -2.23866241828054       -1.56437707587570
N           18.99218137983534       -1.11683470429236       -0.78966885108694
C           17.60444681384112       -2.60411543990250       -2.17282495942706
C           17.60581569903628       -3.74598422926355       -3.11341252443215
C           18.44009091652075       -3.74696578214210       -4.23318757666918
C           18.45486498260853       -4.81371751843380       -5.11524898657601
C           17.62762950313380       -5.91872274879322       -4.89404347127654
N           17.64656705636885       -7.04098796131649       -5.70798324756076
C           18.10516220769962       -6.92877902396627       -7.08582042568578
C           16.79456857564900       -5.92610334386369       -3.76820467241071
C           16.78112855684693       -4.85371523136464       -2.89680398674068
C           16.41175087425372       -1.93239980162332       -1.92670980395360
C           15.16955647154536       -2.23284993251591       -2.57520914661050
C           14.21985860007451       -1.47428009196229       -1.97709792542077
C           14.88432164974790       -0.69983034650184       -0.97467088479429
N           16.23367804964825       -0.95328457878158       -0.98139956452186
H           13.14763951467359        0.13418361800754       -0.09336095096351
H           13.13350693569039        1.68883159550350        2.00269262001277
H           15.02956059902434        3.09679810393581        3.30643983076315
H           16.26026731537372        4.99989882435331        2.01194158174084
H           16.28287702083071        6.88987514292159        3.58870092809653
H           16.86678915715372        7.66212492233167        5.66976886235462
H           19.13418263317532        6.67849368680851        7.24357055135015
H           17.49001116920226        6.15367949339651        7.68992998419269
H           17.91141536048585        7.88608613556814        7.67289717086029
H           19.04107641003662        4.74756448585608        6.09492427069792
H           18.99681381730150        2.87094356317946        4.52799586686790
H           20.19985561235818        3.83584679559748        2.41192597725810
H           22.09163700002627        2.32515830078019        1.22499339350531
H           22.04900359802443       -2.41032483446867       -1.03824989240093
H           20.14494464973870       -3.87786205676891       -2.25877320026475
H           19.07401206857862       -2.88814369317358       -4.42572686232564
H           19.11415381752680       -4.78048748627611       -5.97390401279930
H           16.80738192016078       -7.60168604292051       -5.62377508883098
H           17.57608710555165       -6.13388231933160       -7.62393875532518
H           17.92141822573503       -7.88263801245879       -7.58034768309237
H           19.17658897109434       -6.72543456574587       -7.10764908525361
H           16.15919484380406       -6.78541047419683       -3.58102682977839
H           16.14087961449533       -4.88046634752293       -2.02180305399495
H           15.05172017879901       -2.93284731582540       -3.38655030670447
H           13.16207268281870       -1.42986369492313       -2.18298364349799
Ni          31.02632862246040       -0.01590840753209       -0.03419252791447
C           34.41072560739025        0.04400902238785       -0.12381675368986
C           33.76505107423156       -1.04289075473584       -0.67750379001125
C           34.44073086306485       -2.16967284660126       -1.24315604483970
C           33.48706367185112       -2.95873127493125       -1.79346333951621
C           32.23027933647254       -2.30402560843699       -1.57904553450466
N           32.40744325392551       -1.15551016526851       -0.84851497108073
C           31.02244706146850       -2.73716181629072       -2.11545875098910
C           31.01609825633686       -3.91175128185121       -3.01498851876800
C           31.78319686276388       -3.92280321600971       -4.18358151894465
C           31.76679169070657       -5.01509636638504       -5.02981652984270
C           30.98872456634174       -6.13950509976845       -4.72648788870726
N           30.96274572936035       -7.18750874898857       -5.63332015648381
C           30.56691951724732       -8.51823673785588       -5.19374781753993
C           30.21832639224778       -6.13312564501093       -3.55985840089637
C           30.23516208902595       -5.03151990338530       -2.72172903674373
C           29.81840627215402       -2.09851226549041       -1.84178445909982
C           28.56686730384492       -2.45925912422136       -2.43528794976907
C           27.61460165196009       -1.70639035347753       -1.83207143389659
N           29.63833606997884       -1.09055177619217       -0.92161773211262
C           28.28697766417521       -0.88103587591568       -0.88101333679654
C           27.62247378005415       -0.05482160236583        0.02956620611076
C           28.30274172548538        0.77708187885470        0.92355946816568
C           27.64889814609383        1.57370777016126        1.91122736708162
C           28.60702321778634        2.33709692248320        2.49157301340085
C           29.84217788500749        2.01552168288898        1.84375004895351
N           29.64975577500858        1.01516349160616        0.91741231881122
C           31.03764774961039        2.68833694771763        2.06888203336804
C           31.03622535745540        3.85507987927607        2.97835865253845
C           30.20084152292084        4.94743525938483        2.73566134909172
C           30.18589912121178        6.04106955059611        3.58410310283264
C           31.01433589878066        6.06728410420116        4.70983809929655
N           30.99556382133025        7.10695254696666        5.62701844020587
C           30.53655057066090        8.42671430065286        5.21595698169940
C           31.84848121055962        4.97088754477010        4.96210138859205
C           31.86190598989094        3.88627264314055        4.10592559654395
C           32.23041508291389        2.30180464603104        1.46695557437278
C           33.47257198610207        3.00034580757634        1.61849972619242
C           34.42198606257119        2.25209512261057        1.00707317182534
C           33.75746198653869        1.10512537414875        0.46951116582634
N           32.40827369452152        1.16638318606457        0.71656254501953
H           35.49397546160851        0.06404464580522       -0.15423654533701
H           35.50805908196702       -2.32167819976173       -1.21205838265202
H           33.61154673234637       -3.90303592474162       -2.29835588219527
H           32.37985847238158       -3.05402814601898       -4.43954446736121
H           32.35691354538487       -5.00505228565578       -5.94020737198400
H           31.77338289099125       -7.20437581044171       -6.23999973053396
H           29.50709417864118       -8.52666894327743       -4.93593554547099
H           31.15155425552848       -8.84802141718122       -4.32722453280190
H           30.72951992892526       -9.20835819179215       -6.02168072788420
H           29.60209845798197       -6.98517857783566       -3.30042288815713
H           29.64608378705352       -5.04626659106324       -1.81108369448058
H           28.44234179447241       -3.18951544673983       -3.21810456128650
H           26.55029697880865       -1.70061556912087       -2.00421940754327
H           26.59236158550625        1.54120672757646        2.12347789399116
H           28.49633941837458        3.05086697673624        3.29146696665189
H           29.56619954127291        4.94738063670217        1.85604672566495
H           29.52558461967495        6.87110276998439        3.36485297218569
H           31.83538761251326        7.14789247748915        6.19161113024317
H           31.06551198427402        8.77789243161176        4.32252157268760
H           30.72008618201733        9.11811874779714        6.03840992268287
H           29.46513762373576        8.40317504324955        5.01278812741854
H           32.48479267637803        4.97642857154589        5.84086792046361
H           32.50301642628984        3.03875822884135        4.32263949364508
H           33.59062215700929        3.94439076708397        2.12544406192432
H           35.47963204329246        2.44378875869394        0.91808994637999
C           23.64563062307091       -0.04672467396555        0.06606741081690
C           22.42434208503951       -0.03371965487726        0.06847096944529
C           24.99601172197499       -0.05547182807160        0.05945736237489
C           26.21736995014559       -0.06019534401191        0.04818977480879
