148
 energy: -261.153697126111 gnorm: 0.000606795996 xtb: 6.5.1 (b24c23e)
Ni          14.45651969575297        0.02508579036097        0.05127508912364
C           11.05767661108688        0.10333206828584        0.02873820293581
C           11.71637277278127        0.90358100494453        0.93884317877500
C           11.04434977011501        1.75890518973667        1.86990494914244
C           12.00747912681261        2.41920231319502        2.55433179599481
C           13.26556322705773        1.96494450617665        2.04048094711517
N           13.07750718323570        1.02553551720065        1.05792363371577
C           14.49002645288146        2.44461504625154        2.47666316814682
C           15.69970489473548        1.98725614646906        1.98217925377201
C           16.96833973032689        2.48254037111086        2.42155953633719
C           17.91388693351592        1.78451943830415        1.74861820472646
N           15.86599688812686        0.99927526735081        1.03764445384269
C           17.21968818764761        0.86695594971909        0.90073800479233
C           17.87384329757282       -0.04920230915140        0.07324991691068
C           17.18959961877695       -0.93833593544922       -0.75916588600771
C           17.85417709836036       -1.89459917419775       -1.58717943196289
C           16.88882063470088       -2.55167380386062       -2.27249016464231
C           15.63687155855854       -1.98848884686542       -1.86719033460682
C           14.41429789114653       -2.38568776581455       -2.38721906245698
C           14.39763173988742       -3.43260202114603       -3.44628272201341
C           14.90499695592855       -3.15711878809295       -4.72321792152900
O           15.38449283284934       -1.89984389646655       -4.91316501999994
C           15.95935020987638       -1.53097278875259       -6.15021704221982
C           14.88939322263062       -4.13752023313038       -5.71484810939459
C           14.37155017512737       -5.39058341464069       -5.42439789625865
C           13.86624848050496       -5.68703255689037       -4.16756916951835
C           13.87690249005698       -4.70540862449031       -3.17712220866108
O           13.41132225256544       -4.90189549737066       -1.91532372928786
C           12.86574677828038       -6.14993114221438       -1.53896766375514
C           13.20651982168413       -1.84957040490008       -1.96411871384237
C           11.93540484556831       -2.22564817227697       -2.50911147000913
C           10.99522338507202       -1.52997293142548       -1.82857000679984
C           11.69327103742368       -0.72321572598158       -0.87406745369021
N           13.04896084463118       -0.91210482591870       -0.97395151525261
N           15.83337900601816       -1.00853235305024       -0.91990931472654
C           14.50545152508072        3.50887885635627        3.52214548653960
C           14.63493636493190        3.17137121270037        4.87416698136102
O           14.74007693361685        1.84414852768929        5.14532112200854
C           14.87986244168905        1.39599141703462        6.47834065198511
C           14.64764249868632        4.16937489485122        5.84866702905218
C           14.53282252807346        5.49655016323994        5.46310326312909
C           14.40558586743283        5.85258114293431        4.12880379239999
C           14.39144742067156        4.85458299336443        3.15453538315009
O           14.27377153535851        5.09540278814903        1.82239640978381
C           14.18021442071029        6.42065065897834        1.34081715612808
H            9.97405073997605        0.12876378554683        0.01951072659571
H            9.97267339802555        1.83190149416769        1.96842750256542
H           11.89470278195838        3.15140237598155        3.33784998348907
H           17.10212736448389        3.26304626546090        3.15315354666487
H           18.98703541956985        1.86902124544005        1.80995588251937
H           18.92278006962496       -2.03284112102692       -1.62551104866801
H           17.00159844181893       -3.34621534419335       -2.99184389207081
H           15.22836354069200       -1.58571060044918       -6.96599356190027
H           16.29061692205619       -0.49730724276430       -6.03468386886795
H           16.82327639485411       -2.16072213806984       -6.39484344282024
H           15.27440736224903       -3.93298953538770       -6.70488875416147
H           14.36140563868151       -6.15348278194647       -6.19511311678990
H           13.47027476220795       -6.67380536282231       -3.96827203974395
H           12.56500781672514       -6.04722192638971       -0.49466618871759
H           11.98619879608620       -6.40280466065543       -2.14348690509804
H           13.60660588004185       -6.95424432139087       -1.62289068307971
H           11.79619354008511       -2.93484183305088       -3.30885081706145
H            9.92321917209600       -1.54555655772818       -1.94716480167218
H           14.94974041390809        0.30788659232723        6.42740627252833
H           14.01137493337882        1.67289549008763        7.08838532356813
H           15.79034606038091        1.79396046541359        6.94266232737711
H           14.74539965375754        3.92234549473186        6.89734827670209
H           14.54281293215057        6.27235091662149        6.22090935474387
H           14.31825260315895        6.89632438240314        3.85809822934410
H           15.06691618163794        7.00845290836532        1.60776583944082
H           14.11436714253815        6.34498048939939        0.25387144222473
H           13.28347447156186        6.92448250805523        1.72164517929385
Ni          27.89627634303024       -0.04433989762225       -0.03373331364212
C           31.29505381124003       -0.00405636881437       -0.11273874836008
C           30.63655311689864       -0.79069194426358       -1.03476590695503
C           31.30892644480800       -1.58784268586051       -2.01585276601129
C           30.34598179426059       -2.17438311950570       -2.76466275453180
C           29.08764969504928       -1.73468221430974       -2.23885907164966
N           29.27543938785944       -0.89522319969978       -1.16956555935805
C           27.86314238576281       -2.10362407892808       -2.77189629676935
C           26.65324136666876       -1.68286745984153       -2.24634577470307
C           25.38459078867749       -2.05132992192411       -2.79639333516367
C           24.43898312369806       -1.48417449642832       -2.01005846634255
N           26.48687099375294       -0.88624631371166       -1.13567271316543
C           25.13317553613200       -0.77138486915994       -0.98402168214527
C           24.47893875316153       -0.07983407009899        0.03855078405502
C           25.16320211358850        0.62036256475294        1.03518788210922
C           24.49840634508508        1.30561888898028        2.09827886800827
C           25.46366169595067        1.89058898673741        2.84618686008357
C           26.71577810142716        1.56811852187898        2.23214188792145
C           27.93832369627716        2.02513238585028        2.70050201576968
C           27.95493808518284        2.92369724934417        3.88804456711678
C           27.44943994873847        4.22758045193986        3.79741603534493
O           26.97136894210936        4.59585753045538        2.57980395421883
C           26.39898405740920        5.87393829960213        2.39085970244968
C           27.46534101052574        5.06896636172395        4.90943105837821
C           27.98169774837836        4.60181556931583        6.10853107081462
C           28.48520956282017        3.31485873581147        6.22275222322669
C           28.47423755375680        2.47480868181782        5.10970158478288
O           28.93826775819934        1.19732048497470        5.12421849222135
C           29.48205317878016        0.64576604782197        6.30616265818324
C           29.14625548306008        1.68271496102710        2.10992170992271
C           30.41726860917363        2.16836686831400        2.56030271135830
C           31.35741462931132        1.59653741885937        1.77279447634081
C           30.65944306008626        0.76823792552443        0.83686153249106
N           29.30386617562725        0.83822535683241        1.03937820063322
N           26.51944641423123        0.76922709621315        1.12781729943411
C           27.84785323458403       -2.98831123457325       -3.97311027831426
C           27.71226597616313       -4.37392478998483       -3.83040506709366
O           27.60155459183753       -4.82947962113114       -2.55514072760885
C           27.45692767628571       -6.21202221228220       -2.30017384903179
C           27.69968449230992       -5.19761781207161       -4.95610857782513
C           27.82057266092776       -4.62893376775616       -6.21515942387651
C           27.95382324572869       -3.25823894879027       -6.37874798191757
C           27.96797211898975       -2.43480040352944       -5.25308664574637
O           28.09108306374010       -1.08246927834122       -5.30296861634819
C           28.18910994436309       -0.41867729014091       -6.54663229054389
H           32.37861200239654        0.01098735582501       -0.13835944965073
H           32.38067837934667       -1.67152935876251       -2.10456497535003
H           30.45901773604818       -2.84530911529434       -3.60120901949529
H           25.25080758172635       -2.66679901539448       -3.67138664738998
H           23.36582428184720       -1.53506843427386       -2.10111630063935
H           23.42973461605490        1.32461073038662        2.23994334076974
H           25.35072696054256        2.49054267824728        3.73431201463089
H           27.13129135387987        6.67220824585519        2.56211030581712
H           26.06863335116860        5.90777948772264        1.35101735507865
H           25.53479590060875        6.02774421692252        3.04837017951470
H           27.08174171279984        6.07859148475902        4.84813235496474
H           27.99211481537439        5.25564424421902        6.97370014739342
H           28.88013173484391        2.97614024558778        7.17119484511067
H           29.78143066491819       -0.37362416786071        6.05562086244903
H           30.36218992893156        1.20663935873564        6.64346743675387
H           28.74049877451490        0.61511883648184        7.11362054660647
H           30.55645223312361        2.85717054389155        3.37767411246160
H           32.42933963321194        1.71256114260340        1.80466168939261
H           27.38414950780266       -6.31512037170276       -1.21595870141245
H           28.32455155868416       -6.77945351782531       -2.65842960674889
H           26.54631784751663       -6.61267717753103       -2.76192938072956
H           27.59731381047084       -6.27027734079100       -4.86000298855778
H           27.81061429465582       -5.26952022005952       -7.09025303451095
H           28.04578602691618       -2.84316639801358       -7.37351877023256
H           27.30310389877415       -0.59721365178544       -7.16802768859197
H           28.25766543208476        0.64645583410586       -6.31792310313684
H           29.08603118286833       -0.72710222402120       -7.09747217029583
C           20.50101173219414       -0.08056257946041        0.07554211485827
C           19.27971469789410       -0.07303677485405        0.07599746404262
C           21.85174189940024       -0.08624892088606        0.06944015388818
C           23.07308311240682       -0.08588556616182        0.06209164461896
