219
 energy: -352.281341194083 gnorm: 0.000380947932 xtb: 6.5.1 (b24c23e)
Fe          25.87468898779074        0.08391185183519       -0.24832928813767
C           22.52800329748424        0.26369064134040       -0.72312349595771
C           23.16161083515115        1.37221474932538       -0.19943811577842
C           22.47527517036637        2.56799244313732        0.18629251293800
C           23.41589575320459        3.42029416968480        0.65748747756167
C           24.68013636813702        2.75503384300548        0.52813749621296
N           24.50562354960061        1.48813776478539        0.03937764031227
C           25.90522226831173        3.35269752316978        0.80362393856965
C           27.11695085789002        2.70196997213504        0.61794096124680
C           28.39246673959325        3.34005824890014        0.75257395690085
C           29.33014483013957        2.40231818333356        0.47525765746980
N           27.27815056724762        1.38654115413835        0.25444486254232
C           28.62570799819201        1.19275549504635        0.18577624114019
C           29.26910810139842       -0.03058822951550       -0.04231652549196
C           28.57486195452145       -1.23037039107128       -0.24571975162509
C           29.22470598003761       -2.49730001164414       -0.37136357163561
C           28.24878154811149       -3.41560290820657       -0.56984895627839
C           27.00614412212240       -2.70228616536538       -0.58175930878720
C           25.78994154451437       -3.28430664068389       -0.90604987297041
C           25.75501503527071       -4.74461035055612       -1.16895503788058
C           25.49339304835592       -5.22512937737202       -2.44962804154071
C           25.46912693382267       -6.59465134357745       -2.69781837930048
C           25.17643493112661       -7.10458197775897       -4.08304058781122
C           25.69991673182790       -7.48051022574270       -1.65135804923185
C           25.96085873724964       -7.01413146279450       -0.36489939270475
C           26.21688897233782       -7.99070954298338        0.75094849614168
C           25.99224487852599       -5.64483736384678       -0.13059275219457
C           24.61384209818232       -2.55322260894266       -1.03472721001336
C           23.35875171109200       -3.11709483942595       -1.43956738605771
C           22.45424182797701       -2.10981159864189       -1.42602742940204
C           23.15114575650156       -0.93889604167821       -0.98577190521190
N           24.47359795004876       -1.21982236997622       -0.76155272092171
N           27.22350479551565       -1.36295520296405       -0.35778860553939
C           25.92745344835866        4.76141822011451        1.26564440194121
C           25.43677136753034        5.77961667295038        0.44894829483635
C           25.46676218914735        7.10244341097584        0.87574739851084
C           24.96232958732639        8.20322770398392       -0.01773561563791
C           25.98910517122453        7.40263688335592        2.13077297718243
C           26.48275280860564        6.39771919602057        2.95681325483288
C           27.02637696933248        6.73054089478524        4.31992076882105
C           26.45189720169692        5.07820161525811        2.51759630653716
H           21.46007588458668        0.32855882022227       -0.89952892100399
H           21.40918006592330        2.71274785762582        0.11109383313729
H           23.27881497803197        4.41216094697772        1.05659512561347
H           28.53997853359100        4.37636275665184        1.00935787872901
H           30.40346753080919        2.50352516981984        0.47141609939461
H           30.29055523452985       -2.64836360346450       -0.31201535191065
H           28.35081319816159       -4.47802224361942       -0.71997252239869
H           25.32648273552611       -4.52401546307527       -3.25996862791894
H           25.55236170046931       -8.11946182451405       -4.21238753421283
H           24.09773433182859       -7.11513657168920       -4.25491666828083
H           25.63172836920307       -6.46055250225982       -4.83598302512006
H           25.67924953336527       -8.54935093281386       -1.83791831783446
H           26.25942353845121       -7.48198175173495        1.71375753934899
H           25.42891666308048       -8.74449418276044        0.78669274190677
H           27.16663147641621       -8.50454293957146        0.58886248539336
H           26.18823454576757       -5.26668556916890        0.86667922018046
H           23.20198559084821       -4.15257085988435       -1.69477908704916
H           21.40387453704340       -2.14141621887835       -1.66869611011386
H           25.04768860887744        5.53466176278665       -0.53324392579823
H           24.45729732959468        8.97373297292325        0.56562388919580
H           24.26930251003125        7.81339814263796       -0.76325964580439
H           25.79999130238240        8.66996137098956       -0.54094023220842
H           26.01342550902696        8.43394124667272        2.46762022520052
H           26.22326756193504        6.69100621655889        5.05939993132267
H           27.45133826949437        7.73438400498356        4.33409839372242
H           27.79528374078002        6.01671568781876        4.61607871912666
H           26.82477807893359        4.28439995686347        3.15552198036907
Fe          62.96988356366406        0.10974775431424       -0.09767213686531
C           66.31971453933136        0.55034268865201       -0.44752177947567
C           65.67182122544077       -0.24016782326865       -1.37430744931711
C           66.34562506157022       -0.94433626322298       -2.42291097555206
C           65.39392713286199       -1.61612356970351       -3.11271137642750
C           64.13579304039801       -1.29776660203891       -2.50180917584660
N           64.32266925698849       -0.47192291707669       -1.42509703943251
C           62.90746508103237       -1.73259159412546       -2.98532184056440
C           61.69944598163546       -1.38704470704017       -2.39574198455528
C           60.42140216302642       -1.73025536717195       -2.94468405293432
C           59.48637984461544       -1.21654997240684       -2.11027332702910
N           61.54275567908862       -0.65148474834488       -1.24501980087357
C           60.19466463202369       -0.56885902731350       -1.05104755721743
C           59.55724922051265        0.01334946922528        0.04906740696913
C           60.25627095651833        0.57939747388650        1.11996266024547
C           59.61445035489282        1.08192060503104        2.29414427691097
C           60.59575019647715        1.54658251290483        3.10385693670609
C           61.83428008600232        1.33806700812850        2.41441424741592
C           63.05823647268719        1.79317099725389        2.88265263537650
C           63.10034151152376        2.45818431496207        4.20937010548069
C           63.38357548051255        3.81787772570786        4.30979348401187
C           63.41384683427840        4.44189989379211        5.55383743287265
C           63.72899659368920        5.91004981025338        5.65321152049372
C           63.16782763739763        3.69173168250716        6.69828903772465
C           62.88610794854107        2.33013162294156        6.61305907709355
C           62.61394139410609        1.53887949907929        7.86379503811189
C           62.84867463214015        1.71976036606677        5.36536012296558
C           64.23708602748198        1.67701721895053        2.15641005309810
C           65.50199877077242        2.18846404698676        2.59866063400993
C           66.40852470616967        1.87037606157152        1.64508680427825
C           65.70232825541365        1.14167924522581        0.63483672735551
N           64.37120389836366        1.04840411502213        0.94699586897177
N           61.60861217756391        0.73804030705413        1.19813642292718
C           62.87838534201603       -2.57308697191765       -4.20728870663224
C           63.33757204838319       -2.06495262602594       -5.42182587632253
C           63.30172130585999       -2.84553491313714       -6.57180656690059
C           63.77136320763861       -2.28608855042132       -7.88748261019512
C           62.80556994062009       -4.14421391302047       -6.49951428066896
C           62.34465243517435       -4.66545628567753       -5.29466109632076
C           61.83000972987357       -6.07772462001605       -5.22265536516371
C           62.38133817607670       -3.87394605976905       -4.15129206734025
H           67.39089458976363        0.68055250560066       -0.55322998258539
H           67.41186717192366       -0.92723732023589       -2.58422505718072
H           65.51955328594197       -2.27153515910070       -3.95924701192923
H           60.27006151529688       -2.28290785279366       -3.85749125819011
H           58.41232204712633       -1.26939958479630       -2.18722227199744
H           58.54970723920486        1.07010397058692        2.46313510381750
H           60.50028672734552        2.00642998223775        4.07395770767929
H           63.56330729836556        4.39445999554254        3.40906515759558
H           63.36026340600098        6.32529810135977        6.59111752628199
H           64.81005603072512        6.06172203483562        5.61375024407325
H           63.28093690472452        6.45822491446851        4.82389563152915
H           63.19303868226296        4.17196390957432        7.67112566627253
H           62.56477914005524        0.47172800691881        7.64831731778718
H           63.39717846849664        1.71204774764519        8.60330163970581
H           61.66282516132424        1.84717019123951        8.30278680579524
H           62.63597893803771        0.65955933175741        5.28327328170642
H           65.66269297927595        2.71684119885530        3.52440635464618
H           67.46589570168969        2.08138660804538        1.62031610966146
H           63.70747458550873       -1.04655246961929       -5.46793429962718
H           64.27173989144906       -3.05423292197352       -8.47790224055075
H           64.45899437419796       -1.45438657152464       -7.73412583305791
H           62.91683836765097       -1.92118920067811       -8.46187496571982
H           62.77642710348006       -4.75667257186904       -7.39489386589743
H           62.64955616426072       -6.75965513634009       -4.98450272094779
H           61.40039169182655       -6.38376514532634       -6.17673336667739
H           61.07146000363643       -6.17519193163204       -4.44572067548647
H           62.03386796910659       -4.27154755029199       -3.20403050665684
C           30.66831239297512       -0.06023147649885       -0.02787963985769
C           31.89498783393583       -0.07607911589713       -0.02149959700450
C           33.23369472950522       -0.08672104994244       -0.01284903018577
C           34.46680834364306       -0.09093101514601       -0.00558874122602
C           35.80069864736957       -0.09070932331465        0.00168543644206
C           37.03387171824307       -0.09001915922396        0.00505956716384
C           38.37242656899026       -0.08602622466435        0.00824982765523
C           39.59936347386428       -0.08199855377971        0.00852346065198
C           49.22236487145388       -0.03657464952021        0.13715261598009
C           50.44754415423714       -0.03384610291723        0.15562779928166
C           51.78902181228560       -0.02999668553568        0.16815018143901
C           53.02032704550456       -0.02700584779176        0.17289507055477
C           54.35736725655030       -0.02191591457483        0.16717591252761
C           55.58843836560802       -0.01599589029596        0.15190640062057
C           56.93016442893440       -0.00952337091945        0.12734653215072
C           58.15468845548960       -0.00248341574068        0.09540248666917
Fe          44.41066894825814       -0.06731418772049       -0.00232574830276
C           40.99802925977743       -0.07707530700396        0.00889573066838
C           41.66594871844011        1.15415782481349        0.05237228092697
C           40.99178662414524        2.41239487543250        0.11852770563751
C           41.94305836924281        3.36899315863161       -0.01390043813264
C           43.19406126958060        2.68856432486390       -0.16466946563297
N           43.01159951343169        1.32986718802748       -0.07270123208573
C           44.39911234596151        3.32558564598769       -0.43035899384898
C           45.61173835800190        2.65008211098097       -0.50124823545600
C           46.86269136663205        3.27693597452859       -0.80560232146782
C           47.82201636962918        2.33287478807117       -0.64359259387237
N           45.80253380452719        1.32242568083898       -0.20760399824908
C           47.15203152976003        1.13197660383356       -0.25581756577465
C           47.82070596917374       -0.04372680865004        0.10561949114144
C           47.14883111226062       -1.23049369875256        0.42082196801784
C           47.81554263636865       -2.43345227471503        0.80821235384604
C           46.86410496177638       -3.39583095295051        0.88642160107591
C           45.62082831797307       -2.77584223307939        0.53944004953796
C           44.42092224543418       -3.46374478969373        0.39941532338227
C           44.42926443595965       -4.93760203076656        0.55610018474116
C           43.68688746348158       -5.53969507897355        1.57069008710874
C           43.69367830108189       -6.92209022135761        1.72515610730689
C           42.91343227807890       -7.56308515593171        2.84074248846426
C           44.44411324473038       -7.70172657003821        0.85065463422082
C           45.18622737905201       -7.11546444484002       -0.17099770833732
C           46.00245750530951       -7.97119991045559       -1.10148248442744
C           45.17980196359422       -5.73214177350610       -0.31001652323147
C           43.21515431750834       -2.83091636354774        0.12734605526884
C           41.97183843024350       -3.51646008928653       -0.05995077019034
C           41.01215098735547       -2.56419657281343       -0.16032904345650
C           41.67471613388186       -1.30329532567415       -0.04810782332707
N           43.01991132129810       -1.47127087909536        0.08728306325353
N           45.80513580257916       -1.43578903015890        0.30471253840609
C           44.39233335434116        4.79267152813187       -0.64258126971990
C           45.09575768650112        5.63161957990623        0.21965990434029
C           45.08740426515948        7.00951165424602        0.02664904114780
C           45.85571901233350        7.90666254252159        0.95888708875843
C           44.37879079479006        7.54305145922484       -1.04485696095549
C           43.67398331175288        6.71741629852482       -1.91680898023680
C           42.93079291021628        7.30743441363790       -3.08458737454463
C           43.68030914227295        5.34306786025559       -1.70801466932011
H           39.92774604627047        2.53261550122315        0.24371518603482
H           41.81939613854293        4.43967115284508       -0.00877181834573
H           46.98164421206383        4.30553941845930       -1.10467155782295
H           48.88834219401930        2.42655942873843       -0.77202171200982
H           48.87519867808584       -2.51686137085724        0.98843226672067
H           46.98334732104085       -4.43254376824428        1.15590471401831
H           43.11412835338207       -4.92013378181357        2.25198745419866
H           42.61487868574087       -8.57700428339380        2.57395031082318
H           43.52985659849922       -7.61581779302482        3.74110075993441
H           42.02152321791180       -6.98145067760479        3.07468599166912
H           44.44876139446912       -8.78097384361320        0.96388339506434
H           46.18769365230370       -7.45536040921378       -2.04363063676578
H           45.49286432232913       -8.91275009693018       -1.30814530733713
H           46.96688861981833       -8.20194063646968       -0.64330547338624
H           45.74402015752000       -5.26347872697752       -1.10881659839587
H           41.85808888955810       -4.58711283135573       -0.10905139516573
H           39.95021143652318       -2.68943838600527       -0.29800690299591
H           45.63494314360442        5.20433673574626        1.05797981809068
H           45.45525859429178        8.92029143986267        0.94250365800272
H           46.90378843182093        7.94853385810507        0.65385615668316
H           45.81636285518145        7.52743631053078        1.98040095904747
H           44.37173313790376        8.61677773503765       -1.20189658627264
H           42.49369827479135        8.27030926121544       -2.81867810147987
H           42.13743827598020        6.63929151219659       -3.41961386432842
H           43.61783630762872        7.46666694458958       -3.91882608610402
H           43.14257223545969        4.68778508446013       -2.38439106355969
