420
 energy: -730.514863650890 gnorm: 0.000778487581 xtb: 6.5.1 (b24c23e)
C          101.34651700040197        0.07940587642976       -0.04320283681780
C          101.95561220207155        1.32534446939064       -0.11538587893600
C          101.30450411706194        2.59048030976486       -0.15316212195464
C          102.26678598875127        3.55729906906217       -0.22846187539887
C          103.53713937210999        2.91302316765319       -0.25250386952079
N          103.29860248376839        1.57067807012663       -0.17139494498338
C          104.80075652974887        3.50973690809468       -0.32499897412183
C          104.83528360158257        4.98863689589461       -0.42031079271030
C          105.46987999374072        5.74411669581409        0.56886196490602
C          105.50071726535316        7.12467493723236        0.49064347704133
C          104.89806093203713        7.77915936738401       -0.58787918074183
C          104.92942995717250        9.19982849896249       -0.67264917871623
N          104.95492173818987       10.34830044703265       -0.74022215977912
C          104.26443595545659        7.02791946064399       -1.58212663714514
C          104.23268527422260        5.64762819484469       -1.49442624764130
C          106.01645914109902        2.82018494095079       -0.31115722165938
C          107.31135067560136        3.45994241282906       -0.46023705274156
C          108.23268539552463        2.47702892164687       -0.39145659331982
N          106.17245322443642        1.47522121496574       -0.17728466142923
C          107.50052792176763        1.23862261627614       -0.20918346093750
C          108.13764125623128       -0.00745205995054       -0.05345972384888
C          107.50376659873538       -1.25203806522877        0.11283332774226
C          108.14644596730561       -2.50686411385203        0.28490441019767
C          107.17929004953959       -3.46916898764576        0.37199322815073
C          105.91404341943250       -2.83176833565705        0.24297389980208
N          106.16159208606308       -1.49236870783116        0.10129897520221
C          104.65177282144775       -3.43492432338383        0.27089742354062
C          104.61990865567083       -4.91118383992879        0.39575495779029
C          103.98829269658935       -5.51727632254083        1.48452795069992
C          103.95602300261861       -6.89501111747326        1.60344396146859
C          104.55359050940945       -7.69725660976300        0.62672796977874
C          104.51884895971953       -9.11563099292741        0.74254231263658
N          104.49059003940479      -10.26235136682931        0.83430395378619
C          105.18533752762499       -7.09602483078394       -0.46596728377390
C          105.21892273020808       -5.71751559688810       -0.57527969704830
C          103.43455086211132       -2.75084283604102        0.18368498110181
C          102.13150088362407       -3.39775212377063        0.15484697027207
C          101.21723436607381       -2.41109700495175        0.06818243888294
C          101.96055531741771       -1.16367249905556        0.03226395149850
N          103.29277782533595       -1.40754168044974        0.09315687107970
H          100.26125465865337        0.08791020355040       -0.04437944740337
H          100.23576681854640        2.72922156158805       -0.11843766479418
H          102.11598803488516        4.62422361355211       -0.25663806259758
H          104.02322847457528        0.86096300486891       -0.15082537765520
H          105.92730489201672        5.24073205096453        1.41307675438866
H          105.98989344906353        7.70382339763381        1.26506392820835
H          103.80026783456867        7.53148062430434       -2.42202384740455
H          103.75270445402718        5.06873796538963       -2.27547365323304
H          107.47202223874204        4.51506565796016       -0.61132335743123
H          109.30585436073697        2.55817596410344       -0.45589742734110
H          109.21384799643229       -2.64749742954258        0.33570306948664
H          107.32643677389372       -4.52643870811002        0.52043893886737
H          105.44007886638720       -0.78579714467433        0.00200302436185
H          103.53475318264482       -4.89854246958021        2.25052477165918
H          103.46904129650429       -7.35741685334366        2.45399864674595
H          105.64594455196934       -7.71457489171219       -1.22735535868264
H          105.69698482287953       -5.25612071652733       -1.43210166288411
H          101.96466635490094       -4.46246085457474        0.18340559509623
H          100.14231970923704       -2.48822627474513        0.02215687148063
C          173.54519084336641       -0.10606344433786        0.00640911142629
C          172.94182375074217       -1.30351063908063        0.36818636482958
C          173.59961077260542       -2.50359056766371        0.75918717356746
C          172.64224700626806       -3.44217365859951        1.02214997682150
C          171.36845422334736       -2.84835035897595        0.79014726510708
N          171.59989931578124       -1.55762122138192        0.40854964032577
C          170.10774164561289       -3.43834788124124        0.93595740902132
C          170.08230381550732       -4.86658420287229        1.33181355842575
C          169.46019550203727       -5.26225845305722        2.51840050354864
C          169.43604558446884       -6.59398177096727        2.89162482233391
C          170.03277908712457       -7.56118402368173        2.07731962607949
C          170.00712514581366       -8.93324794487125        2.45583690738928
N          169.98677341024356      -10.04262285515587        2.76083432859409
C          170.65476104542259       -7.17096682470889        0.88765034165230
C          170.68001213860518       -5.83665654064520        0.52360582869974
C          168.88854336995729       -2.78724925427576        0.73033240315659
C          167.59555771293208       -3.44193065101084        0.81746119724005
C          166.67075633128442       -2.49732749534339        0.54852135901967
N          168.72756391675705       -1.47775544952988        0.39600541441740
C          167.39911656262780       -1.27008302933899        0.29047991531472
C          166.75733178580930       -0.05832890374718       -0.03266087295179
C          167.38538181776843        1.15851657259218       -0.35543726982192
C          166.73572525208553        2.39062205293241       -0.63300849046242
C          167.69781639739767        3.32797057429742       -0.88788371520435
C          168.96670705449498        2.69372157304157       -0.78151716071973
N          168.72602668506298        1.38661412959939       -0.45085576843195
C          170.22686026520961        3.27921601234102       -0.94595237528551
C          170.25365724767309        4.71184760265671       -1.32306676870502
C          170.87082998791917        5.64927173840427       -0.49091089531090
C          170.89508428048978        6.98891374299237       -0.83403701894026
C          170.30380281672271        7.41805268397386       -2.02607504365780
C          170.32905999341256        8.79580770476775       -2.38325469704550
N          170.34759557914816        9.90966416895563       -2.67163200860434
C          169.68782019382661        6.48390110357659       -2.86419346628307
C          169.66212847524395        5.14645143344416       -2.51172400051067
C          171.44679253958202        2.61537827543048       -0.77636716767169
C          172.74836688557619        3.22127233557427       -1.01278666742643
C          173.66613775330069        2.27089848600232       -0.74552867808678
C          172.92663956126344        1.08317912786797       -0.35534279016400
N          171.59306450017803        1.32463100949585       -0.39537552813357
H          174.63049497049960       -0.10939912495260        0.00969497103391
H          174.66925028728917       -2.61866254366590        0.83177218633849
H          172.79850887045617       -4.45485684089261        1.35670197573983
H          170.87122646194209       -0.88613645423942        0.19081946589599
H          169.00709638097393       -4.51377350389258        3.15855404173707
H          168.95624071284502       -6.89235135788174        3.81638941690961
H          171.11452484469240       -7.91829117723454        0.25158487286075
H          171.15055545800223       -5.54061328701096       -0.40724995737714
H          167.43823228343442       -4.48557706601484        1.03651375538808
H          165.59840370715301       -2.60133164193581        0.50722750987394
H          165.66780741098788        2.53645183343471       -0.62445114153936
H          167.54480668929472        4.37000614936831       -1.11647714129820
H          169.45191661040010        0.69669135940956       -0.28725694835867
H          171.31860490116028        5.32248521113587        0.44076221604688
H          171.37025180962664        7.71062377340596       -0.17999327942467
H          169.23263957812807        6.81201740232720       -3.79134082156021
H          169.19597429831592        4.42376809554377       -3.17200069125468
H          172.91193196342843        4.23144893992674       -1.35196990791662
H          174.74129532179987        2.33425366003619       -0.80487782718505
C          109.54859915177434       -0.02315037252455       -0.06157568184671
C          110.76501013616402       -0.04192543627256       -0.06323957238805
C          120.46087002590238       -0.08363772133091       -0.06905120830174
C          121.67930459605152       -0.07639423970475       -0.06128676601488
C          131.38262593407927       -0.03239809809195       -0.03424872726087
C          132.60120843772933       -0.03157670768387       -0.03342942864599
C          142.30473712892547       -0.03818106307400       -0.04357103295165
C          143.52325710594300       -0.03684736681464       -0.04440081423525
C          153.22360779831220       -0.03904036869685       -0.04216352593258
C          154.44186935034915       -0.03578221893622       -0.03622801779375
C          164.13091391034121       -0.04089978714665       -0.03865066921362
C          165.34763072192666       -0.05068560097543       -0.03631014194098
C          112.17494989567490       -0.05478708086452       -0.07204364944720
C          112.80554184330235        0.85788216771914       -0.93748851560098
C          112.16754651994231        1.79707277112655       -1.78838944781037
C          113.13687760876223        2.43905194436325       -2.50944245507942
C          114.39576833335353        1.90002864141997       -2.12793412580519
N          114.14648485731942        0.96307868535419       -1.16214951199961
C          115.65468875411852        2.23685292788415       -2.64144159030143
C          115.67498998556451        3.22888510025988       -3.74301847038028
C          115.00465586043644        2.97529543075635       -4.94213132162759
C          115.02563357680101        3.90016509829441       -5.97060967682560
C          115.71615040616483        5.10578754178685       -5.81527102737469
C          115.73676464186988        6.06096854466307       -6.87066159539485
N          115.75264662772449        6.83188668834612       -7.72482568688160
C          116.38685238351032        5.36561463843358       -4.61641431364854
C          116.36698688922917        4.43348835298776       -3.59472354453104
C          116.87540803234771        1.71671041999087       -2.20759327857412
C          118.14852138293237        2.01411301996959       -2.83860359817498
C          119.08892806627192        1.36045371417165       -2.12556052650787
N          117.06171908722318        0.87444385610403       -1.15396338968103
C          118.39079196953733        0.66415299226484       -1.06404828404371
C          119.05375910881543       -0.08918787117364       -0.07304293964040
C          118.41916256464778       -0.85559960109008        0.92439804436105
C          119.05090032817803       -1.57551173431780        1.97032274686708
C          118.08061955937308       -2.22672513118192        2.68164738764506
C          116.82544122403259       -1.92490455412571        2.08703583231265
N          117.07904543747740       -1.07804250072209        1.04145854174281
C          115.56693556228429       -2.39220349940978        2.48567953483537
C          115.55110046653640       -3.37355662819539        3.59681195110546
C          116.21385842205136       -4.59701061403136        3.47185888944003
C          116.19766639505274       -5.51640977294109        4.50528921962347
C          115.52028311844455       -5.22411556778921        5.69276660331697
C          115.50444859566088       -6.16599860636288        6.76012131036499
N          115.48921701941221       -6.92598537020443        7.62401505728164
C          114.85896928057005       -3.99939197501358        5.82471835473592
C          114.87390140117077       -3.08750962367658        4.78481997439318
C          114.34359490903621       -2.00750343727136        1.93265856140599
C          113.06343334965086       -2.56454766362936        2.33215972205840
C          112.12351603496728       -1.91119718890229        1.61824829807427
C          112.83046462300932       -0.96695570579470        0.77617392132509
N          114.16258886959855       -1.06200511490559        0.97148035039570
H          111.10272156789634        1.95582926331921       -1.83887066661092
H          112.99373124157665        3.22136525180245       -3.23670274130887
H          114.86038614795044        0.42151606200012       -0.68648662555830
H          114.47980673847738        2.03560172585464       -5.07267984999726
H          114.50890573816145        3.69302520275004       -6.90040643990621
H          116.92057190474972        6.30041511926982       -4.49119883612963
H          116.87864985714387        4.64303478505899       -2.66218956632665
H          118.28157015280505        2.62326590939091       -3.71787701047587
H          120.15252926099168        1.32308392294076       -2.29469032696813
H          120.11153271807639       -1.58114789600104        2.15849165463637
H          118.21993852080541       -2.85031742768559        3.54948769621858
H          116.36734325590162       -0.67197984439857        0.44342631378534
H          116.72931573950548       -4.83334183840033        2.54772328423422
H          116.70808715328168       -6.46631524528266        4.39773478366428
H          114.33643607936416       -3.76763983116828        6.74539182960459
H          114.37048426265704       -2.13378738961935        4.89552432881009
H          112.92442622365049       -3.35542613971100        3.05121343651847
H          111.05331039197794       -2.03971861990288        1.64089972245878
C          123.08610692297070       -0.06712935730762       -0.05891036132475
C          123.71737001679513        0.89708827408676       -0.86999488606391
C          123.08536041031233        1.90987771502462       -1.63475698881521
C          124.05441383759616        2.58229600000513       -2.32877173276104
C          125.30801251937514        1.99400085069399       -2.01029540743223
N          125.05648279735001        0.99738435310703       -1.10629308048526
C          126.56331245645242        2.33829648552942       -2.52898570598928
C          126.57859449381206        3.37404151247101       -3.58853529997058
C          125.86411757336147        3.18999548422947       -4.77506383848705
C          125.88067386209228        4.15579697846510       -5.76520351109255
C          126.61104136826148        5.33392687685959       -5.58323726679167
C          126.62771274740358        6.33192960521068       -6.59828866145843
N          126.63943209314270        7.13855373670393       -7.41884012682791
C          127.32579128082033        5.52454579981187       -4.39684808319401
C          127.31001015271958        4.55178639805969       -3.41385375703320
C          127.78454168059770        1.79039278040638       -2.13194968403244
C          129.05166753580474        2.08903968646267       -2.77419272589438
C          129.99685964057554        1.42046303254789       -2.08120310215507
N          127.97799515620690        0.92947250947685       -1.09500152477302
C          129.30738171566966        0.71507848838573       -1.02039401695161
C          129.97619228822788       -0.03919798056084       -0.03410598986899
C          129.34361314329996       -0.80743333396764        0.96374723740214
C          129.97373144109676       -1.51804517824640        2.01645087769061
C          129.00471440836432       -2.18562929588410        2.71507641236735
C          127.75307833416613       -1.90488214410099        2.10364185349168
N          128.00560373860600       -1.04810158375903        1.06620679284559
C          126.49911415842286       -2.41540982940398        2.46367470685274
C          126.48338056589452       -3.42368585006572        3.54939772799232
C          127.20743978437044       -4.61246201102057        3.42791317241944
C          127.18999641206761       -5.55531171087610        4.43989268574649
C          126.44901839442643       -5.32247174491368        5.60232219316987
C          126.43101839704470       -6.28932646409926        6.64705928061430
N          126.41553038493120       -7.07063019756967        7.49167419390672
C          125.72502019047047       -4.13330365159003        5.73061162496602
C          125.74178363919721       -3.19790444901445        4.71198816876769
C          125.27911476980103       -2.05503882156031        1.88774926069009
C          124.01473358304187       -2.69225093393843        2.20775331992537
C          123.06962023160474       -2.04072197713265        1.49856880335058
C          123.75629747459789       -1.01010670331142        0.74738214812958
N          125.08473472216241       -1.06332763943414        0.97560214329742
H          122.02587965955921        2.10447053058411       -1.64043603228277
H          123.91441783381568        3.41966896481634       -2.99255495812691
H          125.76791100567661        0.41761607255390       -0.67416032963652
H          125.30816949018372        2.27163709266485       -4.92710764294750
H          125.32962241527082        4.00209903427704       -6.68561226769021
H          127.89039600683570        6.43794422819434       -4.25085563730159
H          127.85541310899413        4.70851502073989       -2.49011470181747
H          129.17762803639974        2.70816565887984       -3.64753662051011
H          131.05836379776349        1.38019333403471       -2.26259119013039
H          131.03191578149656       -1.50702124569361        2.21787009187575
H          129.14331182699797       -2.80728284705081        3.58441344241090
H          127.29542784323583       -0.64974924561751        0.46125699308190
H          127.77159563536662       -4.80434934868841        2.52211074219277
H          127.74848986386864       -6.47804744754547        4.33467168258511
H          125.15236430452308       -3.94771371752614        6.63172995739802
H          125.18898561785909       -2.27160159248858        4.82017339773304
H          123.89053997826790       -3.53513123116543        2.86808270346570
H          122.01001874176495       -2.23287380761092        1.45884080062288
C          134.00764017757982       -0.02927409516419       -0.03685727878836
C          134.64089570756516        0.92612562185709       -0.85679757266985
C          134.01127389263760        1.93627521611296       -1.62701029265031
C          134.98127157546199        2.59821282765051       -2.32973574424707
C          136.23297664960970        2.00595115626743       -2.01111070821499
N          135.97955181977821        1.01755887922935       -1.09857329178775
C          137.48801470086127        2.34000957382803       -2.53676202629103
C          137.50394594340207        3.36696691565670       -3.60496334527123
C          136.78738973366924        3.17358750385850       -4.78871532239678
C          136.80430402801787        4.13043292713698       -5.78747039530011
C          137.53686622243643        5.30890106468645       -5.61691786167157
C          137.55327370195067        6.29742102079447       -6.64122092157826
N          137.56636605442969        7.09616322079764       -7.46941129105361
C          138.25342301957849        5.50895799369989       -4.43319008752650
C          138.23754862710572        4.54489326487836       -3.44159904318161
C          138.70810573088127        1.78931654045388       -2.14011928609902
C          139.97438055578908        2.07853079226845       -2.78818554683967
C          140.91887157466968        1.40995104694281       -2.09420189601972
N          138.90110800946985        0.93398402233070       -1.09848695924848
C          140.22978750294752        0.71384872245272       -1.02706699027511
C          140.89829436792016       -0.03851476921655       -0.03907236594342
C          140.26531800127955       -0.80043483638132        0.96335796578136
C          140.89548079238864       -1.51146016336813        2.01570174043174
C          139.92555118112094       -2.17258365740452        2.71924703924093
C          138.67330152187256       -1.88691710944793        2.11152894423767
N          138.92645669506925       -1.03429766756085        1.07091929925564
C          137.41792939983472       -2.38938644626464        2.47826702314183
C          137.40130985158572       -3.39461568137623        3.56689192343414
C          138.11525653596487       -4.58929545436591        3.44396058693126
C          138.09658031688429       -5.52941948182691        4.45847099335298
C          137.36484173031545       -5.28763318137242        5.62491870985320
C          137.34587911108562       -6.25146435238277        6.67244010573515
N          137.33041300759868       -7.03043900436360        7.51920689309090
C          136.65117293928165       -4.09240793037760        5.75467002008120
C          136.66884996665524       -3.15986597102047        4.73344624675779
C          136.19754958838487       -2.02338084683514        1.90728564749139
C          134.93065834529372       -2.65102330374219        2.23618086152058
C          133.98616892508755       -1.99568862433599        1.52969622643360
C          134.67589176713477       -0.97254725958807        0.77100747084619
N          136.00486381633505       -1.03344380756502        0.99259017609459
H          132.95270052474288        2.13591354255937       -1.63065721694628
H          134.84332115063322        3.43096772219982       -2.99973528420727
H          136.68939243623581        0.43695312926457       -0.66495294665051
H          136.22945809484804        2.25496189352870       -4.93156143843430
H          136.25177745805971        3.96951250394240       -6.70574832270894
H          138.81951223049057        6.42279392666250       -4.29596305403111
H          138.78458459308050        4.70876218573164       -2.52006887150295
H          140.10017785163109        2.69210442691007       -3.66546336900008
H          141.97953587015110        1.36369440088692       -2.27895577275363
H          141.95437273776562       -1.50521236380247        2.21351477353140
H          140.06394673893030       -2.79299269052257        3.58950388869907
H          138.21626142763958       -0.63401167504165        0.46726782313608
H          138.67235334138715       -4.78780287653443        2.53522141567730
H          138.64696421582019       -6.45688659035927        4.35215800567609
H          136.08579305283283       -3.89989665681596        6.65892099322801
H          136.12400661043918       -2.22896713204858        4.84250434022310
H          134.80440503551517       -3.49063271853902        2.90027623135944
H          132.92507512991452       -2.18076976902205        1.49627034045415
C          144.92977323903440       -0.03724226453494       -0.04880412710698
C          145.56335342814444        0.91442251291600       -0.87269379227819
C          144.93300715736655        1.91969538872713       -1.64881947240130
C          145.90275397195825        2.58036315262954       -2.35289397970059
C          147.15525560675815        1.99265941337487       -2.02882367868594
N          146.90220338405922        1.00738008616759       -1.11268030247747
C          148.41077875741212        2.33014475245658       -2.55081508341991
C          148.42624402264266        3.35309096242720       -3.62289333267135
C          147.71572344150974        3.15054121944595       -4.80878982981224
C          147.73222026953732        4.10259724970220       -5.81208424312456
C          148.45833527846742        5.28544888065153       -5.64413731946505
C          148.47453983461304        6.26847028559907       -6.67372025871163
N          148.48671107712107        7.06208403552701       -7.50683591057561
C          149.16848737657409        5.49485772065850       -4.45818942766802
C          149.15299676919742        4.53555476900410       -3.46193408086643
C          149.63148176314999        1.78555699091681       -2.14733221546738
C          150.90030107878746        2.08142011896857       -2.78746337821917
C          151.84364473899066        1.41558724734104       -2.08930165388357
N          149.82185477773714        0.92916375960982       -1.10630991425922
C          151.15097515369155        0.71321336766731       -1.02844272443329
C          151.81675021903536       -0.04412854093022       -0.04295024861344
C          151.18381555811845       -0.81303031354662        0.95376595685453
C          151.81471340561976       -1.52844011899346        2.00285336413492
C          150.84506902574392       -2.19129220166159        2.70509264986464
C          149.59227453785400       -1.90206690650983        2.10010462582356
N          149.84489241610106       -1.04661422496666        1.06178706156857
C          148.33620025559065       -2.40165113838192        2.46858787692460
C          148.31825992012216       -3.40572743479087        3.55822702254293
C          149.02982484195886       -4.60199814524515        3.43685445728888
C          149.01049502340288       -5.54013923911901        4.45321591425113
C          148.28026558342683       -5.29490619811486        5.61990061957610
C          148.26113558561215       -6.25616196998168        6.66976401099680
N          148.24493582472630       -7.03382206187576        7.51769111826196
C          147.56865928812263       -4.09826929085428        5.74795063423147
C          147.58720709030572       -3.16763213345558        4.72503011475070
C          147.11622077471620       -2.03216241035751        1.89903578000370
C          145.84785881092850       -2.65570598969250        2.23008463430966
C          144.90465855584253       -1.99907036864248        1.52314482115673
C          145.59656601575242       -0.97920447943491        0.76190208586006
N          146.92544776136219       -1.04317802644417        0.98279287907473
H          143.87401001417325        2.11691876599666       -1.65545374203943
H          145.76421683227105        3.40962930558529       -3.02708727409193
H          147.61273775290303        0.43027378975987       -0.67552399490688
H          147.16291107954657        2.22850197607780       -4.94956075884507
H          147.18448177671809        3.93452629399252       -6.73195333614032
H          149.72941938941418        6.41216246530841       -4.32290010380841
H          149.69496643249818        4.70682306827859       -2.53875666714874
H          151.02871435484073        2.69758537080806       -3.66254115663855
H          152.90568909840948        1.37449131742604       -2.26778849527445
H          152.87391188662102       -1.52382997656364        2.19938618778442
H          150.98404640960229       -2.81498274368473        3.57290461207180
H          149.13400630230879       -0.64364634478430        0.46073566566025
H          149.58567674510357       -4.80332964506799        2.52797663141750
H          149.55932401010094       -6.46868016110813        4.34823195567659
H          147.00437155479170       -3.90307490338134        6.65231516211685
H          147.04423404940144       -2.23550761846975        4.83297752213470
H          145.71977804032744       -3.49379219795833        2.89575008702575
H          143.84308082532417       -2.18146794275750        1.49079811308035
C          155.84912773046099       -0.03415209516779       -0.03856300941218
C          156.47837240517481        0.96819334940804       -0.80288863840355
C          155.83832447284180        2.00760546206968       -1.52512659229265
C          156.80462820359139        2.73642802696976       -2.16283876719480
C          158.06532945706837        2.16000644171547       -1.84943824631811
N          157.81871674632072        1.10601646524915       -1.01091436480474
C          159.32293228806876        2.58164083039819       -2.29890890002110
C          159.33340584342460        3.69685603505576       -3.27571637222530
C          158.68796018378819        3.56414235101633       -4.50764708345813
C          158.70186053948362        4.59844338999299       -5.42601471742619
C          159.35952730475088        5.79463289286567       -5.12426339385130
C          159.37476508811332        6.86158077153681       -6.06663989135281
N          159.38727440283205        7.72373814046163       -6.82863777388361
C          160.00272925554506        5.93459648230843       -3.89084881381313
C          159.99033329860353        4.89371404303718       -2.97992052455987
C          160.54926593742880        2.03949846867774       -1.90918079995938
C          161.82881586770768        2.45460601809999       -2.45594204876705
C          162.76977605015890        1.72588054881433       -1.82059527826290
N          160.73234120913258        1.06027035142271       -0.98222080033770
C          162.06404485228470        0.86279345874580       -0.89441909167242
C          162.72214395591391       -0.03734218593882       -0.03464127102381
C          162.09675299652224       -0.94593379284240        0.83936531915162
C          162.74179984354913       -1.81358339747185        1.75810189670438
C          161.77627033397781       -2.53486670722136        2.40563281100953
C          160.51262841227930       -2.13456422925834        1.89230391838484
N          160.75613699330725       -1.16276186438756        0.95975666804274
C          159.25285772524072       -2.62671848405774        2.25621526220774
C          159.23409205312382       -3.72000496613896        3.25733797114979
C          159.87851531970330       -4.93307001849950        3.00346158067148
C          159.86168223699482       -5.94981296885353        3.94144562289870
C          159.20165645566527       -5.76841671679797        5.16040143887405
C          159.18722621983079       -6.81012058586425        6.13061290295308
N          159.17700164720912       -7.65114461150350        6.91587796032354
C          158.55569989267843       -4.55593899557348        5.41990400482767
C          158.57112268335561       -3.54618152049493        4.47490446233170
C          158.02924083692301       -2.17383457831581        1.75951848531246
C          156.75325887768486       -2.78728231924561        2.08026257277891
C          155.81222024939339       -2.06986552702200        1.43247897172189
C          156.51261495045421       -1.02100938559248        0.71909473279733
N          157.84320291515476       -1.12237715011760        0.91457687490869
H          154.77491558599044        2.17929207726224       -1.54176147834904
H          156.65889645477722        3.60475398778837       -2.78429359501513
H          158.53552770258085        0.51631823292317       -0.60154427388327
H          158.18859533681118        2.63312700821005       -4.75141069255122
H          158.20553454368493        4.48465322071652       -6.38264495728461
H          160.50982519618782        6.86202516028036       -3.65185716560194
H          160.48023219217404        5.01026239735259       -2.01987082585946
H          161.96652750357413        3.19013872538385       -3.23175686263840
H          163.83895416380960        1.74265776803119       -1.95861185425281
H          163.80772791312177       -1.86575985020579        1.90874501481232
H          161.92514836650494       -3.27095181841408        3.17855516996591
H          160.03707970600962       -0.66922868926447        0.44154553704205
H          160.37983695972204       -5.08367826205412        2.05399363730315
H          160.35859171192689       -6.89038271397802        3.73449523526296
H          158.04523215617837       -4.41066393835579        6.36474593068997
H          158.07939958120733       -2.60288883146968        4.68411145990723
H          156.61889949273041       -3.65997522062964        2.69852625281222
H          154.74631248745285       -2.22711071258295        1.41136027527749
