122
 energy: -198.140625250271 gnorm: 0.000496498026 xtb: 6.5.1 (b24c23e)
C           10.57843507624171        0.07356511016791        0.10474883303523
C           11.18114448746466        1.25846196842580        0.50701267962104
C           10.52187447986335        2.44061306648219        0.94689793910772
C           11.47756069018719        3.37534268873679        1.23112196956764
C           12.75193423802645        2.79731232886511        0.96740859717551
N           12.52201150003261        1.51836285569844        0.54363728589786
C           14.01043537412692        3.38818270940677        1.12478423079678
C           14.03570690490712        4.80592458967745        1.56148475813426
C           13.48242553775498        5.77940411152162        0.82270309518391
C           13.48413786049811        7.22289642865976        1.25483648176695
N           14.46854584058173        7.45640179875131        2.31468295515526
C           14.85104759584437        6.43515666950990        3.14573908212320
C           14.69555073074556        5.14102656214214        2.81533097607075
C           15.22889260999581        2.74203765572986        0.90163178983643
C           16.52320813790908        3.38466015842949        1.03746169654039
C           17.44863852287505        2.44845479202796        0.74136853239257
N           15.38949213091422        1.44677451499418        0.51299242693188
C           16.71812231153406        1.23911243819403        0.41475733899013
C           17.36061121520505        0.03816915815536        0.05195828135751
C           16.73139356015431       -1.16309790473483       -0.32827210216176
C           17.38350461371083       -2.37181195436124       -0.68808067799390
C           16.42239518736230       -3.28971140468646       -1.01100976446900
C           15.15292462533422       -2.66674107726715       -0.86249953713709
N           15.39158009765553       -1.38470313166617       -0.44193065510031
C           13.89521464834665       -3.24437088948351       -1.07066746745110
C           13.88109296775286       -4.64606298703082       -1.55354660458335
C           13.31284136203063       -5.63267535128073       -0.84419922565771
C           13.27828313861345       -7.05910552106659       -1.32764197773445
N           14.25356122413396       -7.27876469801631       -2.39915054257314
C           14.65337416815371       -6.23816777836842       -3.19749218611287
C           14.52806431049625       -4.95315387820196       -2.82198826711402
C           12.67553064542762       -2.59504885393939       -0.85494558870427
C           11.37286173626116       -3.18763893464730       -1.11393939672723
C           10.45541418639114       -2.25991540126381       -0.77289121699768
C           11.19628860195306       -1.09537437752936       -0.32195131477437
N           12.52905595069008       -1.33008869395756       -0.39191010165604
H            9.49305491292061        0.07221788894948        0.12147755834477
H            9.45227144774972        2.54723954892465        1.03473786188448
H           11.32057107851469        4.37582896620706        1.60043997365560
H           13.25229261964930        0.86019007884833        0.29312344156612
H           12.99321659884925        5.57201513307233       -0.12195892558944
H           12.47591078382640        7.51955220945612        1.60079847638646
H           13.73940498956616        7.87172825674174        0.40618758200536
H           14.40652316370525        8.37302116786237        2.73376071383867
H           15.36446638306964        6.75120612565972        4.04826737831995
H           15.04866455714433        4.34835506427955        3.45943176020604
H           16.68026047710530        4.41452700126402        1.31476925233698
H           18.52275801480025        2.54364351665222        0.73003449487668
H           18.45238022646579       -2.51262071076155       -0.69308341335456
H           16.57536059560461       -4.31114846306580       -1.31921648202617
H           14.66454520997251       -0.70703147772199       -0.23746902444223
H           12.83527854177455       -5.44750683904432        0.11081926471055
H           12.26225179994880       -7.31871244728344       -1.67995302862250
H           13.52066948023834       -7.74368428927238       -0.50376668173170
H           14.16617400673267       -8.17786641296789       -2.85056839373910
H           15.15455536774089       -6.53377308420973       -4.11374131474856
H           14.89309548673820       -4.14707950352810       -3.44261282897861
H           11.20718402835804       -4.17508595921333       -1.51386331127420
H            9.37949300551712       -2.32423579320116       -0.82196185137346
C           30.74937253562362       -0.11703150811603        0.04579991507738
C           30.14641202119891       -1.33609996084894       -0.23593116172949
C           30.80494817012347       -2.57284147861604       -0.48559683249715
C           29.84858000175040       -3.51684130240590       -0.73484743579257
C           28.57455822444267       -2.88618174440643       -0.65277104751927
N           28.80528667123975       -1.57589716065907       -0.33972393747497
C           27.31570886552145       -3.47099440824488       -0.82876999687339
C           27.29004492260417       -4.90624399015716       -1.20418353476509
C           27.83965280908965       -5.34401196440847       -2.34684937761514
C           27.83775792546423       -6.79864261971862       -2.73966119438885
N           26.85578491834080       -7.55583480324806       -1.95916893568476
C           26.47775221830587       -7.12609003047674       -0.71317577090114
C           26.63393918984645       -5.85199870408956       -0.31266789404755
C           26.09742062721059       -2.80422053860813       -0.67760928529195
C           24.80307913950707       -3.42229210603851       -0.89994010187295
C           23.87762951804379       -2.47044916199719       -0.65905022492649
N           25.93678044818041       -1.49828115092196       -0.32646346385484
C           24.60817392320958       -1.27009960481715       -0.30064940624987
C           23.96565776196665       -0.05804418894662        0.02299490657282
C           24.59507291563186        1.16317171559032        0.33258687869097
C           23.94364242611312        2.38042247984187        0.66367010794990
C           24.90533741720240        3.32998213741049        0.87349044494027
C           26.17450385379509        2.72141621856065        0.67201916822832
N           25.93507674410197        1.41047239858772        0.35339280927156
C           27.43251071164131        3.32115566424160        0.80021646319124
C           27.44689055077254        4.76659542215766        1.13005088300307
C           28.01285913935138        5.22967392050932        2.25460808670846
C           28.04671938143261        6.69630352572051        2.59738531112393
N           27.07243186933091        7.44839152582467        1.80197900269756
C           26.67555345596300        6.98665725629871        0.57341326904239
C           26.80203885717339        5.69726511949245        0.21364738312503
C           28.65206654144890        2.65563461688820        0.64062103117578
C           29.95466226496819        3.29591532514477        0.73272493982053
C           30.87216806245845        2.32824202955301        0.53157706949955
C           30.13138621888758        1.10093851907259        0.30048200374916
N           28.79859374464261        1.33688446716568        0.36606278714531
H           31.83476971048259       -0.12434855550474        0.05931569304957
H           31.87452522724270       -2.71016740078153       -0.46865824667555
H           30.00495277753802       -4.56187450131791       -0.94810327020531
H           28.07555112756500       -0.88406771261466       -0.20517230104399
H           28.32599995350983       -4.66969068522791       -3.04213845822990
H           28.84653438990770       -7.23249150260829       -2.60459662958669
H           27.57970189840770       -6.90361415078359       -3.80196053325173
H           26.91816250032192       -8.55570533840314       -2.08597507736405
H           25.96662118965600       -7.87050290913694       -0.11094649995153
H           26.28387481372472       -5.51777087940882        0.65358860256870
H           24.64627814215951       -4.44405817902819       -1.20587856277099
H           22.80348905301249       -2.54525448621145       -0.71868517870839
H           22.87483237676713        2.50361647230979        0.73301862275376
H           24.75280682680634        4.36058251961749        1.14976950813172
H           26.66138424283381        0.72598447190306        0.17018657398842
H           28.48884023901800        4.56801147810176        2.96878097125249
H           29.06290052617643        7.10303393431949        2.43681380004374
H           27.80264742541676        6.84252783439669        3.65813920689935
H           27.15896218215467        8.45030550684711        1.89408525115899
H           26.17550079817177        7.72154774457906       -0.04943644352183
H           26.43924193061342        5.34056092267614       -0.73993157684757
H           30.12008540767417        4.34567794566110        0.91459582876544
H           31.94806977935313        2.40894611533660        0.52287679237692
C           19.98854009838677       -0.00152062893540        0.05162885229188
C           18.76651586318311        0.02419352361830        0.05465069210643
C           21.33771319867519       -0.02158137998037        0.04665983273707
C           22.55973722943510       -0.04797782035292        0.03424186542357
