118
 energy: -211.303417963601 gnorm: 0.000433393970 xtb: 6.5.1 (b24c23e)
Co          17.46508284900689        0.08898276479478        0.01829508847727
C           14.08051430098951        0.21536225800041       -0.02750065633324
C           14.74659142746659        0.84950559105894        0.99918076580604
C           14.09465080256550        1.53959411461583        2.07028247850667
C           15.06697088795405        2.16455082541660        2.77662999339618
C           16.30538726032131        1.85864339843093        2.12817650892007
N           16.10840597437513        1.01603305383132        1.07130016271000
C           17.51654391440239        2.47518616685328        2.44364329099611
C           17.53713007169191        3.45738799059398        3.45664536376667
C           17.54613462963691        4.30483266076541        4.32502366865306
C           17.55074163762716        5.29776756752787        5.33151271978673
C           18.72971853508416        5.95792326418455        5.69673500249738
C           18.67737799592320        6.92493167191535        6.68488503262669
N           17.55404356907851        7.26349345400232        7.31252321570586
C           16.42916422809159        6.63985246930691        6.97174435583588
C           16.37371861643350        5.65904631220976        5.99753430325541
C           18.69997455902208        2.16556528845213        1.77619543205268
C           19.94492175514032        2.81449465697590        2.03889426697402
C           20.88625177726816        2.14364150861951        1.33155139624976
N           18.86487875819686        1.13933823884120        0.88156351487067
C           20.21365241349204        1.08569325168993        0.64794738365393
C           20.87626353870527        0.05729287199077       -0.02876995295103
C           20.17300272161158       -0.96173464580228       -0.67872687589637
C           20.80162945676617       -2.05677173072008       -1.34503245495095
C           19.82607029720184       -2.72641706902713       -2.00580755665738
C           18.60550823198765       -2.03440261112684       -1.73857404931348
N           18.81955415199587       -0.98161049019302       -0.88617055681900
C           17.40349343511573       -2.32108838314463       -2.38278596676721
C           17.37786735223583       -3.34016215124994       -3.35855108292676
C           17.36091510579732       -4.22029240228347       -4.19370790524248
C           17.34160056780794       -5.24867249113878       -5.16373442103587
C           18.50237650340717       -5.96053341529533       -5.48823382850893
C           18.43045643013829       -6.96078140032786       -6.44135219908367
N           17.30446372751400       -7.28484835523238       -7.07188467345696
C           16.19692867762167       -6.61218267834334       -6.76973568235811
C           16.16182368265061       -5.59490552327911       -5.83261960658186
C           16.22535306259574       -1.63246131360987       -2.09307754421121
C           14.97871625060247       -1.88064712914683       -2.75034503100230
C           14.04183007590601       -1.15863497079872       -2.09051005376515
C           14.72201143469182       -0.47747187984569       -1.03096874167759
N           16.07152816348719       -0.73494424661521       -1.07515847443144
H           12.99756586498722        0.25393378803890       -0.03977192310809
H           13.02916188468310        1.54146153745929        2.23627688064713
H           14.97280198372912        2.79312530720552        3.64764274819272
H           19.66656255888875        5.71307820348855        5.21103264789383
H           19.57671631783034        7.45300401202774        6.98847143139544
H           15.53108481679730        6.94116250424152        7.50325996859925
H           15.43566786816995        5.17675857785985        5.75050991443684
H           20.06762618446812        3.66379642543097        2.69145725543858
H           21.94567201923519        2.32953444268565        1.27996370267255
H           21.85665761655149       -2.26979748447878       -1.31187383804079
H           19.91121353902177       -3.60066200487152       -2.63080981558863
H           19.44051640338932       -5.72924940336101       -4.99836976026709
H           19.31527657537550       -7.52948897045907       -6.71245892067937
H           15.29635210560450       -6.90251975679533       -7.30309886979146
H           15.23746570373418       -5.07290085854169       -5.61677461055627
H           14.85520504044685       -2.53671292985775       -3.59708456841449
H           12.98151139235927       -1.09398618008400       -2.27586417386155
Co          28.32101857672700       -0.06199961179182       -0.06580354466072
C           31.70552781111077       -0.08672953191537       -0.20025040248500
C           31.03982761278473       -1.29357871016197       -0.21717733493629
C           31.69209547797743       -2.56684520519605       -0.26018800064326
C           30.71989751347259       -3.49408831127028       -0.43336187871990
C           29.48124526249946       -2.78090189102930       -0.50274185082821
N           29.67801725576692       -1.44133021061989       -0.32221279360227
C           28.26981713340293       -3.36827897503986       -0.86878059664991
C           28.24892941899497       -4.74184075791085       -1.19160725093850
C           28.24064021656055       -5.92208890810649       -1.47330456656565
C           28.23682503083698       -7.29584462334140       -1.80759318651851
C           27.05882655502736       -7.94971157245239       -2.18682145828815
C           27.11317719318820       -9.29407009063901       -2.50960116316151
N           28.23748429209925      -10.00489839207536       -2.47805222185714
C           29.36146884977643       -9.39084365834852       -2.11734333500528
C           29.41488899702761       -8.05133282755964       -1.77547835498757
C           27.08637355878612       -2.63654522505262       -0.94536579095720
C           25.84137262377354       -3.19539973088448       -1.36689126460016
C           24.90000121008875       -2.24405085188842       -1.15432084320926
N           26.92143262680647       -1.34191343500839       -0.52409740212684
C           25.57259946328103       -1.11406171150964       -0.59782650552601
C           24.90986945920743       -0.00532969772334       -0.06301748257625
C           25.61303688686003        1.07530737330975        0.47851587905564
C           24.98446765676946        2.20872463474683        1.07723106031384
C           25.96009972941783        3.11925357949294        1.31359113109803
C           27.18061467469831        2.53506142782037        0.85628053271532
N           26.96648716874428        1.26350381840913        0.38931865919990
C           28.38251049431685        3.23531012775128        0.77157988550899
C           28.40767746369337        4.59566208780061        1.14586861426129
C           28.42366058225022        5.76441756424135        1.47169474467226
C           28.44132896654651        7.12504346831894        1.85546407594349
C           27.27971240516170        7.76790261097198        2.29910838443160
C           27.34991089636720        9.09979307288920        2.66686792299965
N           28.47499447710723        9.80866003401876        2.62063942236930
C           29.58335019998938        9.20501669700211        2.19924694634116
C           29.62016869345919        7.87823917300040        1.80865349915847
C           29.56047099144523        2.63370129975232        0.32816017307286
C           30.80685335154453        3.32550267637280        0.20305746757307
C           31.74367030004391        2.38898374638548       -0.07932048749143
C           31.06373287273335        1.12988611666870       -0.12007726421292
N           29.71433105547396        1.29959578303724        0.07944643900586
H           32.78845895471456       -0.09564841460853       -0.24025353481227
H           32.75767497623779       -2.71000791189332       -0.17728460282277
H           30.81439609627502       -4.56418838259431       -0.52604749363457
H           26.12115367866169       -7.40864821572043       -2.22631391023741
H           26.21467212747163       -9.82683743537694       -2.80742523421260
H           30.26036305767900      -10.00044193551964       -2.10281456900210
H           30.35213198173231       -7.59033205395015       -1.48803528378903
H           25.71877714452901       -4.19147647622710       -1.76060796941224
H           23.84050114489478       -2.29547950047723       -1.33977741779490
H           23.92946467440834        2.28946053701718        1.27726128715173
H           25.87500918093833        4.10399582349904        1.74396309513754
H           26.34223579256213        7.22767309546783        2.35257506575313
H           26.46439383518537        9.62362748490455        3.01513835532665
H           30.48315136657684        9.81290578116293        2.17405236138258
H           30.54511553768091        7.42584500811110        1.47202021732309
H           30.93023552227629        4.38889386757019        0.33197330801768
H           32.80381317328728        2.51517297718617       -0.23094360422909
C           22.28405512176088        0.03833936367865       -0.04459785705167
C           23.50207592048232        0.01817532234949       -0.05589776994845
