177
 energy: -321.513657075123 gnorm: 0.000722776902 xtb: 6.5.1 (b24c23e)
Cu          19.58256399523535       -0.02079067967397       -0.00900254040218
C           16.17597941806480       -0.05518996423114       -0.02954117165784
C           16.81165191230265       -1.28093526154943        0.09838711695542
C           16.13715208619523       -2.53857965428677        0.24962950308256
C           17.09636247783647       -3.49032445437740        0.36192590452590
C           18.36667947654719       -2.82267966559977        0.27255452888470
N           18.16258691768706       -1.48173572788840        0.11844393673023
C           19.61166969622343       -3.44860119596594        0.36682321609209
C           19.62566428818910       -4.92306289396018        0.52790659155685
C           20.14795725278642       -5.52127707603309        1.67379975628801
C           20.13951361795544       -6.90322211787122        1.77849516580329
N           19.65788782605003       -7.69861656163503        0.82879414234424
C           19.15983876446412       -7.13638961408725       -0.26768220068315
C           19.11883009507541       -5.76464167675977       -0.46134955666195
C           20.84475213523017       -2.79594496112007        0.32136110554849
C           22.12230305812775       -3.44840634189222        0.37739683075283
C           23.06820014764918       -2.48017500957170        0.28157997454884
N           21.03295262815731       -1.44623635093227        0.18151803676168
C           22.37665201408861       -1.23215451447536        0.15802835355024
C           23.01251194153633        0.01340930601920        0.01294179203162
C           22.35340350290130        1.24597731010259       -0.13866580518637
C           23.02135735971743        2.49996602838269       -0.31805960240721
C           22.05757674130347        3.44861258872793       -0.43062820960352
C           20.79264558879111        2.77998552135410       -0.31236045559675
N           21.00596611193078        1.43713107886420       -0.14540226138213
C           19.54740851496826        3.40713823653815       -0.38461179543369
C           19.53412005493229        4.88170570955170       -0.54152572221016
C           18.97703914846736        5.48665475816490       -1.66751046275453
C           18.99213959084089        6.86887165212930       -1.76935865482024
N           19.51271465539948        7.65856175375345       -0.83558259146166
C           20.04355753210515        7.09013153659571        0.24229683227802
C           20.07955281576531        5.71775169698247        0.43214280709328
C           18.31402109461865        2.75470023228538       -0.31936101105689
C           17.03143746828419        3.40399496266975       -0.34997459677816
C           16.09044154933265        2.43250671409604       -0.25359240297202
C           16.78848980113621        1.18264644418828       -0.15404511015801
N           18.13532820129177        1.40747833109168       -0.19054302951665
H           15.09091382196577       -0.06467452121408       -0.02257608077443
H           15.06583189999892       -2.66190432846120        0.27193472037123
H           16.96347518468007       -4.55064064375422        0.50469176496792
H           20.54203407752297       -4.91171387770573        2.47823812074442
H           20.53878149714686       -7.39204573426059        2.66241628717504
H           18.77490294805413       -7.81246025099507       -1.02555679849309
H           18.71269131698974       -5.35115151307954       -1.37683398250860
H           22.27225235630979       -4.51218045839470        0.46563969492437
H           24.14062189880321       -2.59178492386589        0.28635244161969
H           24.09131894470215        2.62716599362447       -0.35789952120829
H           22.18757402848075        4.50627162248082       -0.59288665055352
H           18.55265729388141        4.88232293138083       -2.46043435415998
H           18.56869774833548        7.36252894182613       -2.63923531724932
H           20.45875307197246        7.76137358950588        0.98841316950190
H           20.51237101733047        5.29910870539059        1.33294983216416
H           16.87813259306634        4.46859886942765       -0.42350735376157
H           15.01712584837746        2.53889534989726       -0.24281932475451
Cu          56.80520066872977        0.02593448291850       -0.00757345873833
C           60.21181178321121        0.04479595458014       -0.05086910574644
C           59.57817469697029        1.25592626847245       -0.28445777584708
C           60.25468619924071        2.50128261732190       -0.51011173475369
C           59.29698873129295        3.44602186017646       -0.67989275701780
C           58.02562370944207        2.78400502450675       -0.56694589058761
N           58.22756787041874        1.45656951347125       -0.32067776906438
C           56.78161819530703        3.41187344862032       -0.66067541224847
C           56.76971194030709        4.86849779523697       -0.94060265826330
C           56.24991206784909        5.77807273254518       -0.02061761875627
C           56.26017600112809        7.12969916413653       -0.32693246931672
N           56.74154210344377        7.60989742232439       -1.46899068238590
C           57.23706135697984        6.74928944608371       -2.35232890689376
C           57.27589519847138        5.38107722472498       -2.13424079020745
C           55.54761581657815        2.77671970748955       -0.51148732060129
C           54.27113799331683        3.41855257634848       -0.65134034138162
C           53.32369320413807        2.46727559987727       -0.45428686320123
N           55.35729241361440        1.44669081618854       -0.24402753418690
C           54.01325506782099        1.23795239741851       -0.20076497334518
C           53.37530743670310        0.00819354820464        0.03914619648651
C           54.03236487523692       -1.21454879756986        0.26268081212196
C           53.36211726604527       -2.46314742280680        0.46907581332013
C           54.32430655439959       -3.40568426326649        0.63430918156477
C           55.59063795221036       -2.73614776180748        0.53835838944869
N           55.37955610999840       -1.40326730522798        0.30254089815233
C           56.83490753420229       -3.36075806709489        0.64210822605175
C           56.84655070120916       -4.81717223512415        0.92126093136414
C           57.39268742391796       -5.72456451995891        0.01428222051525
C           57.37645097558132       -7.07676836210810        0.31813703633929
N           56.86490132008289       -7.55986048839511        1.44574889359828
C           56.34474359977846       -6.70145765797663        2.31711502321851
C           56.31066427606378       -5.33292844498026        2.10074974946859
C           58.06916066541623       -2.72146753487218        0.50379498077019
C           59.35090375790367       -3.35501839585280        0.65637839947754
C           60.29342150479319       -2.40026505067064        0.45978859528303
C           59.59722329246119       -1.17391085948024        0.19393703447375
N           58.24994660431697       -1.39598080641013        0.23191133373109
H           61.29690674299329        0.05317509412974       -0.05125406273131
H           61.32621794374064        2.62357581737543       -0.52741484237672
H           59.43158521536775        4.50128770983744       -0.85488318951781
H           55.85645498230654        5.43265578328701        0.92799016239317
H           55.86382069323376        7.85755068641532        0.37502842831745
H           57.62140562712966        7.17194019367638       -3.27607376580036
H           57.67984001379908        4.71592025209470       -2.88824342335918
H           54.12298846644159        4.46074398654276       -0.88325580326281
H           52.25143929440133        2.57715547153349       -0.48204658404805
H           52.29177270731081       -2.59304852439426        0.47763334322068
H           54.19216678791929       -4.46350384035065        0.79373863154907
H           57.80956175002765       -5.37756365364778       -0.92372736826595
H           57.79155416187799       -7.80287734240368       -0.37478061131142
H           55.93665272727169       -7.12602325273818        3.22971826812901
H           55.88669766681232       -4.66962498505899        2.84527036353121
H           59.50265280191999       -4.39512856129897        0.89602731589852
H           61.36667758894023       -2.50175789310955        0.49521897456606
C           24.41832259591054        0.02504321349359        0.00733617035573
C           25.64267796072436        0.03200470550139        0.00780356027571
C           26.98566505241445        0.03903605081321        0.00105887365093
C           28.21611183275300        0.04366880537531       -0.00560680209418
C           29.55422910839789        0.04300967691989       -0.01185037692141
C           30.78478529815996        0.04124380682680       -0.01994598022498
C           32.12754450647849        0.03726667977774       -0.02724883948783
C           33.35210659429225        0.03078444471743       -0.03265540457859
C           43.03597574707010       -0.00624105886332       -0.01514479642901
C           44.26049793764955       -0.00960662944648       -0.00121687152598
C           45.60314850044130       -0.01174245765686        0.01234029956609
C           46.83368118330213       -0.00998184467601        0.02431642339197
C           48.17170392574934       -0.01133676739217        0.03677340936263
C           49.40225312632968       -0.01070908806768        0.04209004794013
C           50.74520150065545       -0.00533326890377        0.04666687884680
C           51.96954703774801       -0.00098574453228        0.04223342946167
Cu          38.19401100022268        0.00408337323100       -0.03400747558018
C           34.75719016383659        0.02260452427655       -0.03479798704249
C           35.40068597703893       -0.87923477609977        0.83196271987365
C           34.71758396113189       -1.75770483678468        1.73342648175146
C           35.66998917357854       -2.46019513310006        2.39797923969476
C           36.94174801164934       -2.01921708394068        1.89981113176546
N           36.74468503988679       -1.05284359035170        0.94974560113508
C           38.18015609056714       -2.48630070127803        2.34393697057093
C           38.17402263458001       -3.56019498409356        3.36749244613278
C           37.63644412757957       -4.81717242975201        3.09402240364615
C           37.65661203196148       -5.78982608292879        4.08119895379223
N           38.16271898738010       -5.58200460133464        5.29249899030847
C           38.67420022770494       -4.38528464536038        5.56229879543248
C           38.70554701671408       -3.35168825437238        4.63938726175567
C           39.42372985814870       -2.02742255045068        1.90579346370315
C           40.69023682754388       -2.55103777872329        2.33213344386122
C           41.65041975802780       -1.85765604774466        1.66919971336374
N           39.63164730951606       -1.03408486039072        0.98630329438575
C           40.97736645101834       -0.91339967220794        0.82876303018689
C           41.63096767084361       -0.00547996168469       -0.02408512256051
C           40.98762412678447        0.90294775658069       -0.88392219724167
C           41.67065508179337        1.83931601563943       -1.72516118081194
C           40.71807012256356        2.53342001310614       -2.39827045358707
C           39.44629094361513        2.01984801960361       -1.97539496384887
N           39.64350179334378        1.03016059112011       -1.04968749272338
C           38.20791879202800        2.48589060172338       -2.42040829456555
C           38.21440049398115        3.55149993722517       -3.45290318690253
C           38.73808552106182        3.32239800279233       -4.72449043738306
C           38.71833609215076        4.34695690397678       -5.65771675604899
N           38.22621139519698        5.55394480183156       -5.39775543308182
C           37.72862326408624        5.78157968165092       -4.18651056380889
C           37.69718282629695        4.81904525624587       -3.18965671886958
C           36.96430665979386        2.03351858697123       -1.97590548853532
C           35.69760980194045        2.48730282927369       -2.47546232423072
C           34.73731382126574        1.79854263463961       -1.80785384931213
C           35.41049391066261        0.91521490904835       -0.90366247793419
N           36.75638597704247        1.07287878251278       -1.02230248140640
H           33.64650495468552       -1.81691937837453        1.84234456307088
H           35.52823382422712       -3.20242525213861        3.16669346099361
H           37.22233069965838       -5.03454271044585        2.11665336974978
H           37.24875746592187       -6.77817308002300        3.89031028665759
H           39.07732185523635       -4.24548214022145        6.56108681248452
H           39.12370057173317       -2.38858485731840        4.90692623599533
H           40.82357207691519       -3.35425830068960        3.03851538620018
H           42.72060368440911       -1.97344906810578        1.73135728000952
H           42.74185340079062        1.94854552561241       -1.78192592139089
H           40.85939986148470        3.33131316495862       -3.10914880191655
H           39.14126656987491        2.35060848921021       -4.98347757359271
H           39.11501573644029        4.19105849117012       -6.65670511677507
H           37.33675563267732        6.77793507045907       -4.00392215670086
H           37.28987844203542        5.05226324992911       -2.21308534894403
H           35.56441936690366        3.22887209720254       -3.24636275409609
H           33.66691693717961        1.86963548384358       -1.91651335141019
