158
 energy: -272.066674628745 gnorm: 0.000159240131 xtb: 6.5.1 (b24c23e)
C           20.36187994306968       -0.05470303655892       -0.00306466296913
C           20.98549258765387       -1.29532999981080       -0.04310630400155
C           20.37094840285673       -2.57986467177814       -0.08436674829443
C           21.36268964551781       -3.51956087217610       -0.11451749023277
C           22.61417650893701       -2.83914882836615       -0.09260762231283
N           22.33541484548118       -1.50363993476540       -0.04984267973606
C           23.88263708313532       -3.40737183693091       -0.11032565262746
C           25.10302884819266       -2.74760997033274       -0.08871291788866
C           26.38069450138423       -3.43756497092630       -0.10961281079009
C           27.33136560156230       -2.48071346063568       -0.07878136547720
N           25.29777307682190       -1.40131226221379       -0.04613180090681
C           26.63066849496750       -1.20964648272906       -0.03922854876978
C           27.28697560684526        0.03849409144469       -0.00064931385200
C           26.63744575892400        1.28700599505582        0.03721436801275
C           27.24641691172393        2.57031642748384        0.07676989393819
C           26.25070471053950        3.50764996411662        0.10630307027337
C           25.00361288014587        2.82283230330016        0.08556392556484
N           25.28985041357863        1.48492487016432        0.04371628877420
C           23.73631264216742        3.39206512383883        0.10440620590745
C           22.51500125408123        2.73004557192691        0.08454884639796
C           21.23086638435960        3.41353684440659        0.10734566863392
C           20.28643876264764        2.45190507261968        0.07737173686013
C           20.99444839479428        1.18226113829165        0.03634486318693
N           22.33285038946314        1.38932494607381        0.04203714991738
H           19.27704536051593       -0.06124057520660       -0.00291907199491
H           19.30562004230769       -2.74756897607860       -0.08976968970869
H           21.25133082522729       -4.59174522173301       -0.14893475233361
H           23.03012009655074       -0.76475870947612       -0.02608852437921
H           23.91282324517895       -4.49177296354798       -0.14484839143368
H           26.50016676361578       -4.50914794314714       -0.14334299766911
H           28.40392282099141       -2.59326434263364       -0.08164753496870
H           28.31098003870169        2.74161012192380        0.08172175220279
H           26.35871455916697        4.58007198358853        0.13962657052126
H           24.59767961609202        0.74328904819404        0.02108804686169
H           23.70758398541050        4.47643580506557        0.13860512343818
H           21.10555647761563        4.48460584392713        0.14164135512433
H           19.21265868142488        2.55679820316809        0.08154715587782
C           68.01682448098404        0.06062595619348       -0.00114742411599
C           67.39249760487506        1.29011185924050       -0.16915676933796
C           68.00631406705142        2.56407965915162       -0.34130808787363
C           67.01404423244358        3.49503658138554       -0.46860253790304
C           65.76294191426724        2.81958617686244       -0.37819838313780
N           66.04245946495082        1.49567324486492       -0.19862150255555
C           64.49415663198717        3.38216816033195       -0.45475531887812
C           63.27415904814145        2.72720812790756       -0.36670758234286
C           61.99607112470707        3.41056256995219       -0.45850112497631
C           61.04598497524288        2.46110641029421       -0.33138567018243
N           63.08024307069098        1.39207083651168       -0.18770756623600
C           61.74745884665471        1.20110086619376       -0.16263164455004
C           61.09192714580387       -0.03735331433719        0.00032259277779
C           61.74217198692882       -1.27516157894604        0.16488447848822
C           61.13392545830603       -2.54833521980563        0.33332903467223
C           62.13015858265778       -3.47693802839396        0.46027217008259
C           63.37686152028810       -2.79668884753078        0.37284886194679
N           63.08987592635825       -1.47024179916953        0.19438093562163
C           64.64448133837850       -3.35989041823842        0.45264767729422
C           65.86538813734924       -2.70226263040889        0.36791257577745
C           67.14993117188581       -3.37869190848961        0.46315899773705
C           68.09377133984788       -2.42438732022428        0.33649811662182
C           67.38499424032025       -1.16626301240266        0.16410899119291
N           66.04672354991834       -1.37279827479665        0.18858269683889
H           69.10165374013965        0.06799291633437       -0.00014445028871
H           69.07154714235625        2.73109250235718       -0.36285072133044
H           67.12479660066803        4.55811911542076       -0.61266303067927
H           65.34816404668385        0.76264278819341       -0.09990743674102
H           64.46333003142401        4.45735314745828       -0.59985447286120
H           61.87594419090554        4.47309551752276       -0.60095878956917
H           59.97335903990969        2.57201351906336       -0.34649855021476
H           60.06946207109186       -2.71914453099479        0.35338030477692
H           62.02275232382836       -4.54049572707903        0.60230415077189
H           63.78163318292910       -0.73413933663664        0.09815178430720
H           64.67384913389506       -4.43507173566014        0.59747573579711
H           67.27588636451988       -4.44048363494815        0.60738118668282
H           69.16761106539008       -2.52736546688043        0.35345973892044
C           29.91407179111024        0.05987859697827        0.00198557429654
C           28.69148739712773        0.05045483060218        0.00053650217194
C           31.26319005481638        0.06430704399669        0.00301551639504
C           32.48595429719962        0.06352023448900        0.00437185441414
C           43.51516396296695        0.00199323381364        0.00143941565511
C           42.29212665449409        0.00865025690042        0.00231313314715
C           44.86388070874597       -0.00180671363094        0.00055367503522
C           46.08688464482484       -0.00809811426231       -0.00023733662063
C           57.11568996080505       -0.06565645595273       -0.00001359235641
C           55.89295823325406       -0.06484757998447       -0.00031025118664
C           58.46482569663225       -0.06059890947468        0.00091357581623
C           59.68739901466179       -0.05028238139445        0.00039652401045
C           33.88955778269352        0.06063859276698        0.00518776739301
C           34.53613333883155        1.31203942772822        0.00051455308446
C           33.92972271103250        2.59580425833467       -0.00460738036145
C           34.92872029793929        3.53148849625837       -0.00963542990268
C           36.17310832297591        2.84357876009658       -0.00770928207770
N           35.88431915309338        1.50646488420996       -0.00126797953394
C           37.44162101631808        3.41450529933093       -0.01251735066067
C           38.66951236596807        2.77080309627211       -0.01130495470270
C           39.93742950733638        3.47885783561976       -0.01784213812070
C           40.90179213068344        2.53503915758932       -0.01383174498904
N           38.88369122356533        1.42661575732809       -0.00382700150004
C           40.21915930001543        1.25435124416981       -0.00481322355090
C           40.88882846000079        0.01255221488055        0.00338740324893
C           40.24193170667592       -1.23885385087016        0.01283134732239
C           40.84822875466131       -2.52274603567469        0.02136094095652
C           39.84918390467468       -3.45823773873130        0.02714789358521
C           38.60478634033587       -2.77022474705482        0.02226630770794
N           38.89379933246833       -1.43301803722489        0.01392973760613
C           37.33645793538437       -3.34111266328343        0.02454048709686
C           36.10840672047176       -2.69740963512717        0.01956176998906
C           34.84046340350938       -3.40550663303490        0.02179139758922
C           33.87613321615252       -2.46174363183956        0.01592033987645
C           34.55881364504101       -1.18105274239618        0.01046789719644
N           35.89452736738255       -1.35340308294269        0.01251882656183
H           32.86560729495677        2.76976445559242       -0.00452137665844
H           34.82306922440906        4.60465120557737       -0.01435660632750
H           36.57115763616432        0.75947174385677        0.00134820719925
H           37.46219541131237        4.49994260681259       -0.01823619316585
H           40.04182951826902        4.55254028073479       -0.02447499374249
H           41.97273754272284        2.66237944152684       -0.01640249441379
H           41.91228340869856       -2.69687652787041        0.02269626862167
H           39.95462805404278       -4.53139632995105        0.03406034597858
H           38.20696418197546       -0.68604139882392        0.00880375198312
H           37.31579525825704       -4.42654034058494        0.03078167969804
H           34.73602488825845       -4.47917735687343        0.02706630848572
H           32.80522223839176       -2.58911588802958        0.01540735129520
C           47.49018879593381       -0.01228106310747       -0.00100169534079
C           48.13733524812211        1.23777673326943       -0.05690921486355
C           47.53127686678712        2.52054851580759       -0.11385289479328
C           48.53049024902088        3.45481905086187       -0.15831030878385
C           49.77475739854290        2.76714850541650       -0.12966242315816
N           49.48550041392271        1.43138819728611       -0.06805934399635
C           51.04319274835685        3.33702062587278       -0.15940349216601
C           52.27109294505495        2.69357441052019       -0.13234411829716
C           53.53919872009470        3.40043421156360       -0.16899869590757
C           54.50330362466762        2.45743041215677       -0.12547157851393
N           52.48464894062822        1.35102739944696       -0.06833998621385
C           53.82032468905457        1.17844526235079       -0.06223133925625
C           54.48932599383502       -0.06185189281700       -0.00052110675406
C           53.84254940204111       -1.31160038251221        0.06152445940144
C           54.44871580526634       -2.59397175287404        0.12403321337794
C           53.44954190194075       -3.52848208196279        0.16719771487292
C           52.20528238205774       -2.84121947354865        0.13223622383082
N           52.49432293239290       -1.50563882621543        0.06910321676808
C           50.93665358308343       -3.41139723515851        0.15630397893204
C           49.70890572405501       -2.76822183577098        0.12411090601280
C           48.44083236121715       -3.47537795094299        0.15439777731499
C           47.47667765346198       -2.53235839036633        0.11057095769401
C           48.15959166866253       -1.25304943850286        0.05373219597907
N           49.49502286531678       -1.42536604263485        0.06278567537400
H           46.46725528374764        2.69478938274667       -0.11970951418491
H           48.42524991793151        4.52692205080512       -0.20683845669167
H           50.17220729100191        0.68498281345123       -0.03557126938829
H           51.06409536708248        4.42127709503856       -0.21006637888894
H           53.64389102420517        4.47283807559749       -0.22088687426106
H           55.57424229167498        2.58430021203491       -0.13366749103031
H           55.51279769093362       -2.76786052487246        0.13385138100070
H           53.55498797602716       -4.60044470808844        0.21857673209979
H           51.80761865705885       -0.75943732853347        0.03205848992785
H           50.91583943397404       -4.49567112776716        0.20676389571468
H           48.33619411313841       -4.54796834460631        0.20274066945797
H           46.40570507186829       -2.65941418020085        0.11498456363439
