456
 energy: -805.176818380102 gnorm: 0.000452952469 xtb: 6.5.1 (b24c23e)
C           83.05031225403903       -0.03001436534944       -0.09110957135504
C           83.65578985416288        0.97475336027692       -0.83710294156638
C           83.00908996793319        1.98301062783625       -1.60358689330712
C           83.97759351334668        2.76052004495338       -2.17722330492454
C           85.24131973742652        2.24920669190226       -1.77691210719485
N           85.00176246708028        1.17684422441694       -0.97235539037574
C           86.50942578778128        2.74235180042954       -2.13299374169670
C           86.53233941655057        3.86894521481311       -2.98488930834442
C           86.54804573968615        4.83605903104643       -3.71771805479359
C           86.57514660878022        5.96217539863562       -4.57165700158995
C           85.39324740703736        6.54397542776949       -5.04520269196937
C           85.47553485422324        7.64463563844473       -5.87933265342041
N           86.63067724849797        8.18508392585957       -6.25898588213513
C           87.75870834085235        7.63792100990728       -5.81296761111767
C           87.78597050492390        6.53686973674939       -4.97585041927195
C           87.73813121475764        2.20765693216568       -1.71292024779487
C           89.02083065722375        2.75505188424057       -2.10887423031543
C           89.96023172696911        1.98791944490951       -1.51678390550375
N           87.91010117251903        1.13574994902552       -0.90130663644164
C           89.24542739395810        0.97630706447696       -0.76265259500029
C           89.89478946269216       -0.01545906191493       -0.00331694931664
C           89.26354523187558       -1.02543523329076        0.74900962515511
C           89.90376820103685       -2.03350583652673        1.51547130084964
C           88.93093112974613       -2.81300280725816        2.08129957131658
C           87.67178567541923       -2.30014772251118        1.67486780746194
N           87.91936500154505       -1.22230529604936        0.87337249278182
C           86.40498792819841       -2.79963372979477        2.02450974675888
C           86.38086668676347       -3.93386941426770        2.86453405576465
C           86.36225265313834       -4.91087212423490        3.58448010027905
C           86.33499814686672       -6.04928647088482        4.42145696200279
C           87.51737877202663       -6.64391055515015        4.87797595785801
C           87.43557119915701       -7.75761415431901        5.69454859938899
N           86.28047587008703       -8.29915497819383        6.07295482076843
C           85.15204714562650       -7.73979841492644        5.64332855889593
C           85.12422781501697       -6.62527488318150        4.82430728879753
C           85.17517379468100       -2.26148999797753        1.60453332749780
C           83.88589142446332       -2.80665263501955        1.99254673340524
C           82.95299737428728       -2.03184291045819        1.40249348942154
C           83.67564747388312       -1.01703103172866        0.65554854810152
N           85.01636432992569       -1.18961747862855        0.80313023985190
H           81.96510058101765       -0.03506263304743       -0.10154401892067
H           81.94012866631795        2.08941709994965       -1.69672311974715
H           83.83947995971263        3.61407104623493       -2.82141677348479
H           85.72060067934821        0.60899899924306       -0.53645071861180
H           84.43079687493710        6.13580840660483       -4.76100153719315
H           84.57453719594118        8.11577455768803       -6.26164044114089
H           88.68307446956572        8.10385245230997       -6.14211488895578
H           88.72770654189335        6.12296860182508       -4.63621462164900
H           89.15473488762619        3.60986529746435       -2.75236769214692
H           91.03364447295954        2.07555932762096       -1.56816516399884
H           90.97174024052191       -2.14141753427286        1.61521965532315
H           89.06566666429217       -3.66822106268854        2.72375420242944
H           87.20351825210568       -0.65317881423354        0.43381019554128
H           88.47975638099122       -6.23548955664033        4.59394396563248
H           88.33689580251990       -8.23898689171787        6.06307212869285
H           84.22776184662483       -8.20699085809897        5.97092848561621
H           84.18214346376858       -6.20192745225479        4.49749725144472
H           83.74681647334241       -3.66504120718260        2.63047213147405
H           81.87832141759397       -2.11275484003854        1.44793085356814
C          201.74883076861079       -0.15841354312521        0.02369388639926
C          201.13643039033934       -0.99727692093690        0.94780588903361
C          201.77584893911293       -1.86818182912096        1.87242556636080
C          200.80194825221253       -2.50827541944460        2.58897997683684
C          199.54214141478795       -2.04570206985713        2.12262456610184
N          199.78925941846299       -1.13931164980015        1.13672187377095
C          198.27069059311711       -2.43546007263073        2.58043280110998
C          198.23908607689762       -3.39735368994100        3.61447061451012
C          198.21447636479667       -4.22694384351262        4.49977557187081
C          198.17656875185872       -5.19433747159915        5.52972770207099
C          199.35214627550778       -5.74302871004747        6.05559544317589
C          199.25896962168122       -6.68789464561409        7.06185650738078
N          198.09901629484762       -7.10673375886160        7.56150657587668
C          196.97693294764028       -6.58978643121761        7.06707375542002
C          196.96060860123953       -5.64043150617976        6.06095825690414
C          197.04623264900377       -1.94983277292666        2.09385862869502
C          195.76002967794332       -2.38139229033202        2.60476914222396
C          194.82624311136189       -1.70827992110293        1.90017524081236
N          196.88179827803344       -1.03723316336034        1.10505917740145
C          195.54796131278528       -0.87004466939024        0.96231991295729
C          194.90511007520826       -0.01977173575305        0.04239227657221
C          195.54304701168212        0.81669317418222       -0.89456373627618
C          194.90993106396832        1.67846929108396       -1.82727872742133
C          195.88819148073253        2.31257520086590       -2.54507053808418
C          197.14364876772174        1.85380966503570       -2.06859673784146
N          196.88847223646223        0.95316629695441       -1.07401069134814
C          198.41398050092414        2.24591506694407       -2.52580657182574
C          198.44685308647718        3.19611087339161       -3.56924155688275
C          198.47425750195669        4.01236299654168       -4.46711915762066
C          198.51238903017065        4.96245715065070       -5.51265220847396
C          197.33599265557945        5.48591128152346       -6.06227205092312
C          197.42871003418006        6.41330522617193       -7.08460784064873
N          198.58895446329382        6.83851541213477       -7.57829570715399
C          199.71176082137671        6.34578554390931       -7.06125507541220
C          199.72864901430083        5.41518035055174       -6.03781866062855
C          199.63985732614179        1.76807583368135       -2.02833812711106
C          200.93288342753726        2.20121157551238       -2.52885284280862
C          201.86019759953493        1.52995636232847       -1.81591853459792
C          201.13045384121685        0.68906171392750       -0.88300547419024
N          199.79107609954943        0.86202780812051       -1.04214490755060
H          202.83392786619405       -0.17700771137306        0.01778682467747
H          202.84386897417596       -1.98202377752447        1.96753330940697
H          200.93392407452583       -3.23692877491812        3.37272606555170
H          199.07455128236333       -0.64142875557202        0.61661842135176
H          200.31818388969299       -5.43051896713771        5.67771959977531
H          200.15486732252506       -7.13036023058406        7.48790718128110
H          196.04837729644069       -6.95372681376586        7.49744815973037
H          196.02341859067687       -5.24599212431974        5.68728560299680
H          195.62010237896669       -3.10162707629677        3.39495367444375
H          193.75249769662881       -1.75573649380399        1.98570751236804
H          193.84277889478520        1.79260847553298       -1.92896135871249
H          195.75951236976016        3.03473126278615       -3.33516069735269
H          197.60026651216535        0.45820992154205       -0.54681597899818
H          196.36974247161601        5.16723929733362       -5.69018352647018
H          196.53221749159246        6.83571778570526       -7.52933592188448
H          200.64050006071855        6.71425078052206       -7.48736541713273
H          200.66646798519955        5.04012100264283       -5.64617397959318
H          201.07807667689912        2.92154811808706       -3.31825130361741
H          202.93533058041393        1.57645536424875       -1.88983937042031
C           91.30041282298728       -0.01249247949302        0.01260525576698
C           92.52480690521111       -0.01475958910001        0.02671086876341
C           93.86758060954934       -0.01679490278330        0.03853986820043
C           95.09813912542550       -0.02154951239180        0.04806860449522
C           96.43610501209788       -0.02825884359850        0.05606182800214
C           97.66672117584216       -0.03709789198318        0.06174726768603
C           99.00930223107858       -0.04828054897273        0.06402384756081
C          100.23391763055483       -0.05933288508869        0.06790565354619
C          109.95464217777904       -0.06847607181185        0.03330981706123
C          111.17966495386854       -0.05630016254955        0.02865128840131
C          112.52128115365397       -0.04636833512260        0.02153954916934
C          113.75247242534958       -0.04146599112817        0.01487807873647
C          115.08942122485684       -0.03701041537423        0.01016404076843
C          116.32062163866239       -0.03545107098498        0.00740274194707
C          117.66226690305936       -0.03843946716307        0.00483088136362
C          118.88737792479931       -0.04299680663244        0.00696686172078
C          128.60753406360490       -0.04393041301098        0.01377294223043
C          129.83262303794129       -0.03536676215873        0.01459715533384
C          131.17421220397941       -0.02867246765096        0.01234549805212
C          132.40543676520102       -0.02435312114883        0.01120235681939
C          133.74235612710112       -0.02361457921175        0.01004371178701
C          134.97357196133629       -0.02534587902569        0.00929453451336
C          136.31516906216660       -0.03023220964873        0.00933030186760
C          137.54027154745404       -0.03744067341769        0.01260898804731
C          147.26034888279023       -0.04874824869767        0.01724033679097
C          148.48545361320100       -0.04262869939220        0.01663843445934
C          149.82703590058463       -0.03512856504167        0.01401640584827
C          151.05822127733046       -0.02708866328293        0.01276945600539
C          152.39513809464756       -0.02436018163987        0.01016439428353
C          153.62638109831119       -0.02451360548890        0.00735530323999
C          154.96798766249046       -0.02799516651256        0.00561676190282
C          156.19311061186434       -0.03354999406037        0.00871008421244
C          165.91315265281270       -0.05072786224802        0.01065643647418
C          167.13823294801978       -0.04271554109411        0.01143862437546
C          168.47985057684849       -0.03691078319838        0.01074099865406
C          169.71106149655708       -0.03200763727397        0.01094433246277
C          171.04802134523592       -0.03004353439662        0.01270278882562
C          172.27922811767391       -0.03069437819099        0.01592025315159
C          173.62087885221118       -0.03412634167065        0.02068186432325
C          174.84594537839232       -0.03933196401098        0.02870399055243
C          184.56645703756215       -0.01893529860305        0.07152159983812
C          185.79107228570271       -0.00273288959058        0.07258879836191
C          187.13346287841222        0.01022472432891        0.06979127620373
C          188.36418035688234        0.01963588572771        0.06541844306050
C          189.70200648730989        0.02486605381652        0.05936588933894
C          190.93268670664077        0.02412200165818        0.05350088987452
C          192.27531607249614        0.01677871152400        0.04902091408127
C          193.49979089298540        0.00287707426225        0.04608476502346
C          101.63866892664514       -0.07334551540462        0.06537147765344
C          102.26286738665415       -0.31768190737612       -1.17430564920485
C          101.61940343895706       -0.55970231435371       -2.41426309543305
C          102.59102551013160       -0.75995321202763       -3.35878907856073
C          103.85069537153878       -0.64276628849467       -2.71800535879606
N          103.60679590800768       -0.37512047388911       -1.40180746127438
C          105.11607165387193       -0.77473743791819       -3.31970444321255
C          105.12393371668487       -1.06801772352895       -4.70179608906426
C          105.12737940024968       -1.32654474958915       -5.88747496294901
C          105.13886899202079       -1.63049339944897       -7.26790784965931
C          106.34145967047291       -1.82198526814665       -7.95837674873729
C          106.29859150889398       -2.12015795802478       -9.30862800781633
N          105.16294877060749       -2.23511575049638       -9.99254906202860
C          104.01556806829355       -2.05406253455510       -9.34352020573648
C          103.94884702571937       -1.75323821277499       -7.99478312234311
C          106.35367547940309       -0.64070532444558       -2.67195063716894
C          107.62582537848822       -0.77375259899565       -3.35452652365473
C          108.58036308457073       -0.57510805746841       -2.42125051533679
N          106.54656438820108       -0.37080884189151       -1.35753524058956
C          107.88498270805157       -0.32550827624529       -1.17403058910663
C          108.55099308952983       -0.07940824304253        0.04180348002859
C          107.92650807750248        0.15300841248281        1.28398086955270
C          108.56993491966048        0.38898330832033        2.52508353102305
C          107.59823799058520        0.55605871097208        3.47596314076854
C          106.33851700295472        0.42786075833006        2.83726849965289
N          106.58276186586014        0.18560773137770        1.51598501268633
C          105.07329217849228        0.53226296676374        3.44407003298584
C          105.06533878235503        0.77898560066204        4.83515712678435
C          105.06258267876201        0.98551418013045        6.03102064887078
C          105.05221413291618        1.22451150731752        7.42415368217491
C          103.84979212540446        1.33968205461606        8.13166057273505
C          103.89414693209407        1.57187046294431        9.49476689824992
N          105.03107511554047        1.69280452165317       10.17551691936079
C          106.17832007139086        1.58482260833283        9.51018115296392
C          106.24359972906493        1.35319972292759        8.14779300540547
C          103.83538398579650        0.41532985638651        2.79268064639426
C          102.56322173631719        0.54637450380610        3.47571853881711
C          101.60864680996677        0.38187089882399        2.53586849805598
C          102.30386210636713        0.14869543810534        1.28545337935034
N          103.64286883930976        0.17522074296775        1.47298740941032
H          100.55109278088871       -0.57824388516399       -2.55720443063732
H          102.45361993858123       -0.96962872462628       -4.40729891377724
H          104.32125831608198       -0.24066915306431       -0.69411099651946
H          107.28887247191892       -1.73789267543358       -7.43985019523374
H          107.21617261633925       -2.27441603449306       -9.86905610116220
H          103.10810745656534       -2.15508355281343       -9.93189480476473
H          102.99237294851341       -1.61410216161735       -7.50547709545991
H          107.74316285271993       -0.98807806706261       -4.40473982371004
H          109.65215448787612       -0.59182711449263       -2.53738413848091
H          109.63825961629121        0.42378239850060        2.66489500148851
H          107.73558849078509        0.75168804341532        4.52719504013775
H          105.86843190880751        0.04811863471332        0.80874228338848
H          102.90136739936177        1.24755433365412        7.61638265132476
H          102.97673869214705        1.66530972921657       10.06875680171872
H          107.08685823230462        1.68862555073725       10.09640004587737
H          107.19998997665289        1.27187746419012        7.64544920541829
H          102.44594211709405        0.73939155563404        4.53006423198962
H          100.53684628554204        0.40936883560173        2.64984736633080
C          120.29100893758574       -0.05151930624581        0.00819099022608
C          120.92110428348923       -0.30652788234138       -1.22680620723731
C          120.28337752307823       -0.56049508022053       -2.46716134793180
C          121.25951894213009       -0.76376541206299       -3.40654352902965
C          122.51612401143632       -0.63682608552362       -2.76183324746206
N          122.26593713292721       -0.36061353215573       -1.44843874275940
C          123.78442825637968       -0.76743349101953       -3.35764297887344
C          123.79911058917028       -1.06775068789042       -4.73815465759741
C          123.80866435062919       -1.33211954060651       -5.92251946732836
C          123.82770682348185       -1.64249993110996       -7.30144121161375
C          125.03432215653048       -1.83104526855157       -7.98568238114225
C          124.99894866322828       -2.13582130979341       -9.33467735302916
N          123.86692365085851       -2.25991722318048      -10.02297720646000
C          122.71576133776119       -2.08179532187571       -9.37987458890459
C          122.64153521451456       -1.77489570370363       -8.03289309103686
C          125.01903370015739       -0.62655987051440       -2.70554282777566
C          126.29426774169816       -0.75982170924572       -3.38220757946033
C          127.24450583657593       -0.55653924127186       -2.44552256629573
N          125.20584734124931       -0.35127054829430       -1.39134951058083
C          126.54344825648559       -0.30368481315144       -1.20220127406654
C          127.20395063991316       -0.05402277352308        0.01592698710446
C          126.57384497424134        0.18307674381273        1.25449550088352
C          127.21158382527810        0.42177876212920        2.49789437927508
C          126.23544382196097        0.59381416802506        3.44347695653919
C          124.97881924779051        0.46625311546937        2.79890438116526
N          125.22903660503296        0.21915683294187        1.47969496462510
C          123.71055273497441        0.57617960775565        3.39879300990079
C          123.69569328093685        0.82570741172270        4.78936881270321
C          123.68565564044194        1.03274597408682        5.98508187756728
C          123.66602036429407        1.27064884769556        7.37832267843583
C          122.45861466912076        1.39148506912088        8.07633833978732
C          122.49330881134254        1.62135536091142        9.44011145120991
N          123.62540664297779        1.73482157234484       10.13011450541691
C          124.77733177731834        1.62143492500462        9.47384096205024
C          124.85226679535072        1.39157940116202        8.11162811013500
C          122.47593712503713        0.46008689246895        2.74173944899589
C          121.20074932402790        0.59869808276689        3.41736572874459
C          120.25052110522650        0.42872260620049        2.47405446285587
C          120.95153467245567        0.18446080181139        1.22901212188748
N          122.28916800202447        0.21111538998604        1.42234959008824
H          119.21570330999116       -0.58421157798917       -2.61404081022642
H          121.12699774917519       -0.98167912441618       -4.45400111156403
H          122.97707923007229       -0.21833455901784       -0.73892469168794
H          125.97897835378279       -1.73956930678365       -7.46339488542400
H          125.91976287068603       -2.28794645002957       -9.89036191855758
H          121.81144375527505       -2.19033423643287       -9.97172989478232
H          121.68221438985759       -1.63844249928689       -7.54842375650816
H          126.41647796420142       -0.97767027817066       -4.43113843250280
H          128.31680209374431       -0.57208521580026       -2.55703920041225
H          128.27926447742425        0.45484571151242        2.64291110926126
H          126.36795256289696        0.79255409703244        4.49474205577279
H          124.51789918419877        0.08036403917429        0.76948701265642
H          121.51386482304675        1.30533937753163        7.55332407516848
H          121.57185404688239        1.71900771408102       10.00687428810997
H          125.68168914136440        1.71914621749028       10.06751361957052
H          125.81218574782504        1.30555637633629        7.61686451806955
H          121.07854154250974        0.80006700660121        4.46957939765087
H          119.17825178333045        0.45900801508965        2.58268830346933
C          138.94384739869631       -0.04875575714040        0.01397237729625
C          139.57333717547033       -0.30550280231210       -1.22099773772822
C          138.93499087690395       -0.55907543796973       -2.46112027780092
C          139.91064918959222       -0.76430827002265       -3.40057058921151
C          141.16756956287628       -0.63896205001557       -2.75615123433588
N          140.91802513441297       -0.36180733335702       -1.44281677892299
C          142.43553835786813       -0.77111150717246       -3.35226226580986
C          142.44955365959632       -1.07128228773115       -4.73280500481665
C          142.45874583155293       -1.33528480500662       -5.91725200029289
C          142.47747315388651       -1.64499950148472       -7.29632387282519
C          143.68419302670446       -1.82604599497556       -7.98242065638518
C          143.64866260619593       -2.13031276038317       -9.33152128681847
N          142.51637269236346       -2.26085243374937      -10.01819986177706
C          141.36511101236769       -2.08994901704757       -9.37331575840542
C          141.29102914232249       -1.78408428489042       -8.02608260375670
C          143.67050627422421       -0.63138083069739       -2.70053906301889
C          144.94538974205082       -0.76561583889045       -3.37764456736580
C          145.89611199454652       -0.56300004736106       -2.44129863199701
N          143.85797786854127       -0.35640007784095       -1.38639876416209
C          145.19570026606314       -0.30971172269453       -1.19771353208445
C          145.85677677683057       -0.06039426521457        0.02016825329175
C          145.22723866845084        0.17673621006364        1.25901396207479
C          145.86557191220527        0.41462791302638        2.50224697140283
C          144.88986281542498        0.58775366387549        3.44808396434002
C          143.63294032268061        0.46181027610093        2.80378583808580
N          143.88251804246886        0.21422655333642        1.48456756928289
C          142.36494093012902        0.57397701849480        3.40387282904991
C          142.35083809579231        0.82465081764506        4.79424772574109
C          142.34144688483636        1.03261346750679        5.98980452272009
C          142.32238850303594        1.27184080694312        7.38282491854020
C          141.11525719440684        1.39168595264710        8.08148691045241
C          141.15050557241301        1.62314823458711        9.44497569331421
N          142.28289429450618        1.73913615031431       10.13408859379572
C          143.43455372172320        1.62675092480449        9.47718760356140
C          143.50893650999669        1.39540635854217        8.11519423396217
C          141.13003887027708        0.45981397614435        2.74707641914717
C          139.85518313615472        0.60113142297608        3.42279361227971
C          138.90452289896012        0.43265537846947        2.47964745771496
C          139.60494301955677        0.18653975674590        1.23462429841732
N          140.94261784976942        0.21069738833622        1.42777899179501
H          137.86725514151141       -0.58119164515955       -2.60780937330156
H          139.77761247041079       -0.98251526786839       -4.44789922060306
H          141.62949062854159       -0.22021620687280       -0.73349031135473
H          144.62904355557370       -1.72913635480133       -7.46146674251404
H          144.56955486304528       -2.27658447337961       -9.88865654441825
H          140.46058571271877       -2.20365900864158       -9.96388332040411
H          140.33161764772140       -1.65359910014422       -7.54013852268528
H          145.06705637106197       -0.98353523442585       -4.42661972089823
H          146.96835216977371       -0.57938509746828       -2.55318719471842
H          146.93333057222819        0.44633324662164        2.64702385557106
H          145.02287619708468        0.78627138617619        4.49932600649460
H          143.17105451246763        0.07645634755315        0.77448606129355
H          140.17030350177478        1.30355985042771        7.55916877758847
H          140.22928634324796        1.72006947810764       10.01224118443899
H          144.33915733009417        1.72659178174014       10.07013629988821
H          144.46865785928341        1.31030727973585        7.61989027125777
H          139.73349886694743        0.80311584062135        4.47495727752604
H          137.83232080751517        0.46507158633585        2.58835028503678
C          157.59669181584570       -0.04396319144845        0.00916846313656
C          158.22565386215641       -0.30058132831855       -1.22608489503399
C          157.58681067700223       -0.55393804969051       -2.46601371441826
C          158.56208199698452       -0.75934565092006       -3.40581516158177
C          159.81927600177076       -0.63435937291155       -2.76183619099327
N          159.57024684916826       -0.35705146295244       -1.44841619003975
C          161.08698288984368       -0.76748496002559       -3.35823162011209
C          161.10037014237051       -1.06874028139651       -4.73854781169869
C          161.10866649160690       -1.33409870559538       -5.92270019998039
C          161.12619875927030       -1.64582883917990       -7.30133628357298
C          162.33219053654636       -1.83029064193301       -7.98778834767950
C          162.29533584477554       -2.13678486749512       -9.33635223850127
N          161.16242715912912       -2.26634124373727      -10.02220079277077
C          160.01185100371916       -2.09216804927899       -9.37698053100346
C          159.93909733678674       -1.78389335882011       -8.03022881114860
C          162.32222957913629       -0.62845545406944       -2.70682619494129
C          163.59685747763038       -0.76417557695936       -3.38410446783178
C          164.54794111390081       -0.56227396192377       -2.44796332752139
N          162.51016542561055       -0.35313885334545       -1.39285010493117
C          163.84799815094044       -0.30784601274156       -1.20436137620674
C          164.50952869627037       -0.05906900956258        0.01334717276182
C          163.88044935149506        0.17914534395858        1.25223830875196
C          164.51925977850260        0.41661903769608        2.49529711561766
C          163.54392180157197        0.59076919053527        3.44134113061641
C          162.28675622433852        0.46580905201123        2.79736200219931
N          162.53580095653220        0.21798429032372        1.47809936870017
C          161.01896438778667        0.57869844519417        3.39784119807251
C          161.00537262714496        0.82841657732248        4.78839754415837
C          160.99664286522480        1.03511172423551        5.98417778943350
C          160.97826213514995        1.27238593877355        7.37754419974036
C          159.77147238429143        1.39023657308529        8.07713867844354
C          159.80737615560514        1.61935336230188        9.44100576594887
N          160.94009117873716        1.73490086480600       10.12965390066690
C          162.09143336970834        1.62445267480854        9.47186259033137
C          162.16515975224647        1.39550056492426        8.10942903622785
C          159.78386595230651        0.46520304359358        2.74137887410301
C          158.50923906548300        0.60703587579911        3.41743696630579
C          157.55826348407936        0.43846749993659        2.47463637946087
C          158.25827448932210        0.19183310007526        1.22946681077709
N          159.59598484769600        0.21590406313101        1.42215469743547
H          156.51901832890871       -0.57578622557138       -2.61234308990604
H          158.42860824778148       -0.97745344164089       -4.45311208004374
H          160.28201721236479       -0.21578564580748       -0.73932934590051
H          163.27751475448790       -1.73433117095972       -7.46751600602657
H          163.21564013871497       -2.28576885949779       -9.89373213543326
H          159.10678455400091       -2.20516366103525       -9.96685857049065
H          158.98020445719072       -1.65080375457905       -7.54397941682312
H          163.71812627041285       -0.98254580307103       -4.43303272070641
H          165.62015046511209       -0.57977508741785       -2.55999744132824
H          165.58707163694410        0.44744010744802        2.63984268119405
H          163.67735895369276        0.78931171932588        4.49252350375178
H          161.82401451836591        0.08060483576977        0.76826757155758
H          158.82625686852143        1.30232000419266        7.55525726265424
H          158.88642184053802        1.71459857836677       10.00899172693513
H          162.99632118175907        1.72383873160758       10.06444956814880
H          163.12464775926591        1.31185768289667        7.61342576500335
H          158.38791692302055        0.80938274503610        4.46957418748578
H          156.48609960130639        0.47118512195425        2.58363878669471
C          176.24959422763365       -0.04778415050750        0.03579973718519
C          176.88477398910007       -0.29810712465816       -1.19744883987742
C          176.25222878685673       -0.54960026721098       -2.44108173480766
C          177.23224529140552       -0.74821149551684       -3.37728619337747
C          178.48628850157471       -0.62041880250812       -2.72750022300613
N          178.23049428333098       -0.34886481363826       -1.41413298935159
C          179.75687966070711       -0.74443943570055       -3.31919623032195
C          179.77788736594167       -1.04109602344279       -4.70036428331813
C          179.79330671228078       -1.30333635842178       -5.88515174012105
C          179.81935810040446       -1.61213524318551       -7.26429019066876
C          181.02971233530408       -1.79132507706233       -7.94446294324062
C          181.00130248394993       -2.09531438899689       -9.29379046204205
N          179.87263306201996       -2.22719843167930       -9.98616307446256
C          178.71795653496838       -2.05795381301246       -9.34695763844760
C          178.63676050715330       -1.75257946622328       -8.00002982352113
C          180.98887506111055       -0.59981930561086       -2.66226757975885
C          182.26688708866550       -0.72223140204152       -3.33582592154194
C          183.21312862461033       -0.51834269314562       -2.39527828343502
N          181.16984019902458       -0.33058828002621       -1.34645957386791
C          182.50703378058006       -0.27689319708911       -1.15254399815513
C          183.16194758421327       -0.03557567931928        0.06966120393828
C          182.52712840768280        0.18635325087440        1.30818225840355
C          183.15971159208408        0.41529096135295        2.55614842185681
C          182.17974193382133        0.57870262539783        3.49920521161622
C          180.92570182031844        0.45554991666467        2.84859234140865
N          181.18122212417072        0.21870910227695        1.52869015984672
C          179.65492074698420        0.56260788202646        3.44381349826576
C          179.63402069970223        0.80556977283427        4.83549244324845
C          179.61795265927978        1.00826886244033        6.03188137808568
C          179.59048601366615        1.24146021846599        7.42578739504672
C          178.37903354211099        1.36240661808385        8.11676306789485
C          178.40572268036868        1.58801269581949        9.48142096971853
N          179.53374321359649        1.69725699202953       10.17875859456590
C          180.68946971823618        1.58376240840813        9.52920451571690
C          180.77238987443280        1.35797474938577        8.16677466806809
C          178.42314263239695        0.45104603583019        2.78079507745333
C          177.14508029690472        0.58741747943454        3.45156600956163
C          176.19882262663242        0.42247569518099        2.50341914540917
C          176.90508920733120        0.18343432779471        1.26026403772638
N          178.24181398400395        0.20853502309564        1.45939804760559
H          175.18515680514730       -0.57495324533224       -2.59204394730334
H          177.10416827036616       -0.96321077114757       -4.42590431205016
H          178.93864317133443       -0.20742268430117       -0.70146607890392
H          181.97183680846078       -1.69334055636431       -7.41879901355330
H          181.92515327839220       -2.24027975653117       -9.84635462189169
H          177.81652563889193       -2.17267954192693       -9.94204608232280
H          177.67476568223250       -1.62350651310993       -7.51883621644272
H          182.39348116232543       -0.93372705684747       -4.38553982301596
H          184.28581212480034       -0.52727242876656       -2.50368002729521
H          184.22679662012396        0.44824463901734        2.70554626206208
H          182.30787267206199        0.76903462685344        4.55256970825756
H          180.47295729818441        0.08541227432009        0.81456952124921
H          177.43735995497619        1.27972858625865        7.58766309991580
H          177.48094924710259        1.68567229336137       10.04275872484070
H          181.59032729763663        1.67799328320887       10.12874168442409
H          181.73519755654709        1.27177555560809        7.67769616812246
H          177.01845141094583        0.78396950754803        4.50417251797764
H          175.12610303927605        0.45294526701265        2.60755750903031
