223
 energy: -395.375827993336 gnorm: 0.000535093570 xtb: 6.5.1 (b24c23e)
Ni          31.19569764511618        0.21364647461709       -0.14143985506815
C           27.86508835654115        0.68070373246094       -0.56664218593230
C           28.49250084922802        1.38126424063209        0.44292596900433
C           27.80290527408415        2.25503233103208        1.34304541522219
C           28.71596327751487        2.67873630388043        2.24779565728105
C           29.97080966640342        2.09333254915619        1.87796400911598
N           29.82065897761456        1.29078005842895        0.77449209284382
C           31.16614774800136        2.34389127891381        2.53653832044161
C           32.38418914851994        1.84949026959998        2.09370418939112
C           33.64268202714972        2.22536931474819        2.66279651869536
C           34.60416103614678        1.64371465588645        1.90669382108420
N           32.57437833051733        1.02271297208438        1.00986053618427
C           33.93083390533591        0.89331253329768        0.89410637664239
C           34.60107634603895        0.10519533663649       -0.04459496700635
C           33.93130395199311       -0.73595715494101       -0.93667007508764
C           34.60515911137502       -1.67738164667785       -1.77445328874867
C           33.64416101914718       -2.38341462196972       -2.41637782598193
C           32.38557757633291       -1.84539101104653       -1.99792090355231
C           31.16271358482358       -2.26685302488330       -2.49789316694348
C           31.13577216082568       -3.38418771236236       -3.48249445372173
C           31.62638335733466       -3.20168973257625       -4.78204372827315
O           32.10491315446772       -1.96173915037304       -5.06695216645586
C           32.63261959196092       -1.67304515754693       -6.34565030494713
C           31.59737416149055       -4.25101632845170       -5.69999147535902
C           31.07949861190708       -5.47806970593151       -5.31372285887465
C           30.58569539350422       -5.68097677462036       -4.03394295494299
C           30.61045201445717       -4.63034967720930       -3.11709449575791
O           30.15389989079699       -4.72978082989749       -1.84099188658515
C           29.60679111754970       -5.94422038205392       -1.36896020829198
C           29.96404621250632       -1.65274447947794       -2.16371443933385
C           28.71215893953764       -1.96299964093203       -2.78873807219577
C           27.79907419119182       -1.09723376294257       -2.28973619060134
C           28.48804479073005       -0.27682829331208       -1.34027980590757
N           29.81479255151385       -0.61979422408918       -1.27303431056153
N           32.57517128387013       -0.83966227475608       -1.07679636162999
C           31.15617142876139        3.23254496664913        3.73177873097389
C           31.40541642345906        2.70394001088112        5.00502912819559
O           31.63271354200907        1.36520909369979        5.05706450941230
C           31.88677684158807        0.72974789589729        6.29348049109043
C           31.40207790174579        3.53389652070165        6.12585060513431
C           31.15497138356554        4.88913083898192        5.96764308016964
C           30.91015077376347        5.43535842388811        4.71677517923385
C           30.91018852235275        4.60524037656129        3.59636271997600
O           30.68941053303103        5.04673616777681        2.32972691299007
C           30.44886588423793        6.41657604527866        2.07961817820747
H           26.80615638007662        0.85168602253179       -0.72281401835461
H           26.75068269745676        2.48518004750753        1.28495905227575
H           28.56971704273190        3.33816485665411        3.08770752599368
H           33.76227385716423        2.86747347038016        3.52026041021062
H           35.67530888619903        1.69833404304767        2.01733572323429
H           35.67619549719622       -1.78582102037409       -1.83500911049031
H           33.76511611578137       -3.18928806308002       -3.12157351203273
H           31.87688724541794       -1.79878527207209       -7.13049895455621
H           32.94715043463084       -0.62820147820409       -6.31526083775637
H           33.50049159170855       -2.30374692940701       -6.57376270050615
H           31.97222668177996       -4.12022619924148       -6.70630203116891
H           31.05931610376902       -6.29475019278780       -6.02701039313187
H           30.18748539785426       -6.64891562093544       -3.76050026463380
H           29.31422954469773       -5.76313466858031       -0.33303044110191
H           28.72197062037995       -6.23784604023642       -1.94680294653382
H           30.34430266217625       -6.75549579679863       -1.39831674216875
H           28.57013774350558       -2.73653041773396       -3.52616077183693
H           26.74869261636791       -1.01376109889325       -2.52045055682068
H           32.02792400250937       -0.32879851217292        6.06758680888018
H           31.04165460391969        0.84103925039444        6.98366345395204
H           32.79534369957209        1.12107197637251        6.76719441025684
H           31.59047849111635        3.13548235487865        7.11378398258934
H           31.15397861045914        5.53473696709225        6.83903531682191
H           30.72287379509588        6.49663982632272        4.62265966359495
H           31.29883264253143        7.03673411633189        2.38911601765975
H           30.31209077420764        6.50859176114316        1.00054076588017
H           29.54167096983001        6.76507800426131        2.58817058677261
Ni          58.05138898414639        0.12583342971079       -0.12827244614371
C           61.41235466446729        0.47848759492594       -0.39574961084115
C           60.78616977501934       -0.41076892244787       -1.24524789067861
C           61.48170613634380       -1.22497401927968       -2.19520798205311
C           60.54234716857474       -1.95073302390850       -2.84578055201069
C           59.27096277682325       -1.55571193154526       -2.31519849126647
N           59.43456474596955       -0.63503270196805       -1.30981301845796
C           58.05259050027638       -1.98366605014791       -2.82220562190665
C           56.83674171140682       -1.52423468994886       -2.33679537430102
C           55.57526350614237       -1.83336130264613       -2.93751866290888
C           54.62521224552616       -1.21807257949390       -2.19322760375575
N           56.66056512707133       -0.71554010891194       -1.23737853272770
C           55.30705341333709       -0.55168326072701       -1.12889827999422
C           54.64371027436358        0.06829036000053       -0.06635028186953
C           55.32322788902780        0.62775598934081        1.01976429831032
C           54.66288858067577        1.13143854082607        2.18218236284752
C           55.62902527085674        1.61781050622050        2.99767757852126
C           56.87514757332778        1.43746800515399        2.31704015897311
C           58.08502995299612        1.93822817953340        2.77437039508404
C           58.11177735279324        2.69743769706128        4.05468551777301
C           57.47949475851355        3.94409730321966        4.15785173237456
O           56.86813223300330        4.39604505817407        3.03142386259756
C           56.16976559878105        5.62466047049363        3.03770460713204
C           57.51208440186916        4.65424059027985        5.35756239881122
C           58.17450231549389        4.11504152493176        6.44985317515993
C           58.80915352239072        2.88466792831451        6.37113280918402
C           58.78110145382114        2.17626644156064        5.17030204055559
O           59.36799036980529        0.96271161698249        4.99688826961041
C           60.09684298921491        0.36231044383973        6.04810175018017
C           59.27046532728625        1.79562373375217        2.06564325775626
C           60.50826072439413        2.40775343615112        2.44896029416251
C           61.43410437609440        2.02654590278249        1.53797741619202
C           60.76419438058512        1.17069189230473        0.60625905270490
N           59.43246483167992        1.05941637127167        0.91941202808879
N           56.67685935453167        0.79066455895427        1.11706407504311
C           58.04084848639197       -2.94126669139452       -3.96235310621913
C           57.58405558917831       -4.25251101407361       -3.77249355578575
O           57.18989898724042       -4.56607974396591       -2.51065085917752
C           56.70764697414938       -5.86027900457460       -2.21119569719596
C           57.56224512872511       -5.15274585677072       -4.83731152680701
C           57.99213628028934       -4.73662438536788       -6.08822526638335
C           58.44543114476576       -3.44342011199892       -6.30049579765126
C           58.47095538412560       -2.54386582850402       -5.23518105002144
O           58.88803675370040       -1.25478812206326       -5.34625406593041
C           59.33005376004238       -0.74965259904445       -6.58974873097026
H           62.48387371681195        0.60919832525221       -0.49437189882639
H           62.55257074159419       -1.23310512924723       -2.32463860828513
H           60.68121328009364       -2.67886764564822       -3.62836698914200
H           55.44682090920308       -2.43829683825881       -3.82041185740753
H           53.55564839177194       -1.21880284904253       -2.32948764484428
H           53.59695148665450        1.10085993461428        2.34189456345989
H           55.51829371105016        2.07362241082748        3.96797054086071
H           56.83824521667101        6.46659808523915        3.25498049152795
H           55.75748636982075        5.74435137960380        2.03410195946873
H           55.34924050113072        5.61602040070855        3.76541007761719
H           57.03001496159202        5.61861281783726        5.44582544989085
H           58.19778455640549        4.66688791795532        7.38315047283837
H           59.31787496688856        2.48759897975662        7.23933266511014
H           60.48389374765866       -0.57787318203429        5.65078580986637
H           60.93703627862617        0.99216698330938        6.36497297868324
H           59.45609687101651        0.15105127451346        6.91285103790066
H           60.63602666794191        3.04845356661261        3.30649869552864
H           62.48173918080616        2.27911781648771        1.49132931389280
H           56.46231177227114       -5.85416367680232       -1.14759033297483
H           57.46884650819200       -6.62684425371436       -2.40067622544161
H           55.80482818332568       -6.09568090029995       -2.78774836948908
H           57.21411042535746       -6.16780553759445       -4.70061750964867
H           57.97303627460120       -5.43599495961322       -6.91686403432463
H           58.77243854125213       -3.14572011967709       -7.28776284070665
H           58.53664946481955       -0.79239018474483       -7.34577783522435
H           59.60236644218239        0.29279951690660       -6.41451289211450
H           60.20894239557381       -1.29443505117814       -6.95557694102739
C           37.22938300228609        0.12046144599080       -0.06582808332778
C           36.00851296633085        0.11000723447454       -0.04954484762403
C           38.58126534029363        0.12477848227699       -0.07204866248363
C           39.80232370402605        0.11906399870270       -0.07988520752636
C           50.66607841621443        0.09821039413267       -0.08282796631180
C           49.44444023884201        0.09293890521284       -0.08931118132665
C           52.01666639863952        0.09557806800055       -0.07590268307654
C           53.23811010453893        0.08306965390040       -0.06594715618715
Ni          44.62420759158638        0.06586271381686       -0.08262691561785
C           41.20918002293025        0.10513856310470       -0.08116557815503
C           41.87988358942395        0.01320773461728        1.14117069950856
C           41.20922758371132       -0.11046198462920        2.39664274872000
C           42.16763934904253       -0.07755797422061        3.35360176062975
C           43.41971388552572        0.07908814326688        2.67929010451714
N           43.23358517916954        0.09473265451614        1.31547504365750
C           44.62943957317059        0.27125532998350        3.32965315751523
C           45.83352729825956        0.40695684747177        2.65435319946496
C           47.08249992510444        0.67286734540630        3.29911711920963
C           48.03625498117450        0.63053015263179        2.33764930326898
N           46.01596553180980        0.24243827744530        1.30015400383679
C           47.36655002594888        0.34003348663749        1.10971308365729
C           48.03922088918884        0.08333301189946       -0.08849172377317
C           47.36612494832204       -0.19623079760804       -1.28133365640867
C           48.03425121841532       -0.51166092805095       -2.50385742536129
C           47.07622558348845       -0.60099639311329       -3.45782865247869
C           45.82689173041244       -0.32904718165769       -2.81600317707187
C           44.62045852996947       -0.21039514698119       -3.49037920393643
C           44.61738086566479       -0.33089420100449       -4.97397571665052
C           43.99319197022876       -1.42113262652022       -5.59530735430802
O           43.42616368912074       -2.33363534903198       -4.76324782098190
C           42.74891020940629       -3.45837542378769       -5.28585483829131
C           43.98850268982251       -1.53269269190354       -6.98530151812915
C           44.60369056249159       -0.55179871655334       -7.74838960617269
C           45.22573757847766        0.53682352009209       -7.15616535878833
C           45.23486530032740        0.64683004439636       -5.76602841800323
O           45.80880619508674        1.67936749468092       -5.09492033329845
C           46.47474930211855        2.71000172537368       -5.79605012397459
C           43.41621935511203        0.02262171404146       -2.84194839958339
C           42.16771059498650        0.19908054164847       -3.51811977908282
C           41.21287106070923        0.28675693452361       -2.56104402607932
C           41.88165578160051        0.17015969312344       -1.30399160422735
N           43.23253944047496        0.04602831928901       -1.47817091136338
N           46.01359960942492       -0.12272549417541       -1.46773458237971
C           44.63888640919335        0.33753919761903        4.81678095713769
C           45.23616071042659       -0.68699566689826        5.56364062553946
O           45.77187386582177       -1.70867668660630        4.84602499510682
C           46.40978705192093       -2.78766314788161        5.49867206271839
C           45.24627567649792       -0.62936054420440        6.95687407589499
C           44.66424348849898        0.45457730091097        7.59661156945057
C           44.06984310515474        1.48112135588696        6.87838226335289
C           44.05457017198756        1.42155436210596        5.48517026064657
O           43.50483034412042        2.38008865070170        4.69431457919503
C           42.87500837186735        3.50821049795584        5.26674786573203
H           40.14172578060919       -0.20731110537498        2.51327643034448
H           42.04901875317215       -0.14275380662222        4.42288971277739
H           47.20195878067470        0.86126925943119        4.35365893273645
H           49.10064362848983        0.77188135291610        2.43580528814158
H           49.10012515205359       -0.64081845092664       -2.60305474548166
H           47.19369970288192       -0.82151157434930       -4.50628797757550
H           41.89919478038268       -3.16008309251206       -5.91196001358210
H           42.38009400481646       -4.01770743727080       -4.42406818615687
H           43.42196961515926       -4.09837728607004       -5.86920013103775
H           43.51253069459279       -2.37219957564266       -7.47412165599682
H           44.59798391325544       -0.63763105799380       -8.82947234353703
H           45.69539340465331        1.28853204958248       -7.77632765338219
H           46.85858089093067        3.39407422017003       -5.03694031005405
H           45.78962297212846        3.25380548231553       -6.45769047294655
H           47.31314152796525        2.31851641853966       -6.38482190346974
H           42.04867244424372        0.24200374027617       -4.58849014167811
H           40.14858275481321        0.41358578337829       -2.67842399157339
H           45.71523478161097       -3.33014180462679        6.15154043651647
H           46.75659396754701       -3.45712763908351        4.70930943282152
H           47.27082740703936       -2.44852760332883        6.08729412566801
H           45.70093599514467       -1.41696446674694        7.54272274665009
H           44.67424117088274        0.50045403946057        8.68010005457018
H           43.62587387298463        2.31582321639663        7.40414035491925
H           43.58096808397312        4.10780463232676        5.85419008016548
H           42.03002746004924        3.21711714585692        5.90249817137844
H           42.50562291456061        4.10587781817674        4.43133874287629
