344
 energy: -664.849438219538 gnorm: 0.000751834684 xtb: 6.5.1 (b24c23e)
C           49.32069659511049       -0.35559658869052        0.16031206344550
C           49.93802988066838       -1.09776100157439       -0.83820250519977
C           49.29477371879609       -1.87891302627651       -1.83879255035686
C           50.26322787698238       -2.43837693103267       -2.62366013933771
C           51.53058854297844       -2.03103536600732       -2.11715662444644
N           51.28274732825518       -1.21487966635683       -1.05003804094577
C           52.79947743222375       -2.37551677980786       -2.59735004971371
C           52.84765902361842       -3.28917767900197       -3.76560685812342
C           53.45919656195731       -2.86478635875069       -4.94877188497605
C           53.49599628479771       -3.71125110006066       -6.04950382857947
O           54.06975351066822       -3.36120757560460       -7.24344488170812
C           52.93116224663758       -4.98208482560477       -5.97651992069436
O           52.95466166839388       -5.83665361766100       -7.04706680207446
C           52.32482268027740       -5.40905228671675       -4.79398335845817
O           51.78198583040383       -6.64932594228396       -4.73145313345550
C           52.28087477452185       -4.56193349653463       -3.69271713702042
C           54.00752990151977       -1.92470671256126       -2.05895942610863
C           55.31219438130688       -2.37791619953105       -2.50683012508014
C           56.22281058681723       -1.73045728683420       -1.75053058394426
N           54.14844472268399       -1.03188975822263       -1.04051674317437
C           55.47377965132092       -0.88513129549573       -0.84130878853153
C           56.09842802758079       -0.02536560768141        0.08579826298191
C           55.44929556283471        0.81590920373739        1.00945316684248
C           56.07721708634589        1.73165531812482        1.89478930182920
C           55.10039059319036        2.35056995883889        2.62436750725090
C           53.84496270087392        1.81966080274411        2.21699865962991
N           54.10767391914372        0.90526945133528        1.23048158731659
C           52.57810176476485        2.15512475851328        2.70565610740865
C           52.51976723237409        3.16356250725710        3.79217733215211
C           53.16416962884150        2.93301764186641        5.00791861338428
C           53.10030716829617        3.88176603393136        6.02190794009852
O           53.71557100688912        3.66362659615684        7.20958391527500
C           52.39734878855963        5.07056600138472        5.81935164277013
O           52.35511328124218        5.98874511896201        6.83530503327740
C           51.75701241443520        5.30210964996003        4.60456049307864
O           51.09071578434387        6.49267751622048        4.47794628683378
C           51.81217488774971        4.35253518773275        3.59230247731023
C           51.37407784951666        1.60981817383070        2.24512810925733
C           50.07174129344788        1.89641243744887        2.82655850471104
C           49.17129360347644        1.18661053657450        2.11694856730921
C           49.92239983159444        0.46379343475760        1.10621942528482
N           51.24635883778701        0.73280610690228        1.22182796244189
H           48.23768503654193       -0.42098225476144        0.19037645624223
H           48.22626796300612       -1.98330017775717       -1.93986508955507
H           50.11745547181167       -3.07358211581332       -3.48211950727755
H           52.00285982802815       -0.76157062206687       -0.49758109250737
H           53.88720497296905       -1.87158880282133       -5.01736023914475
H           54.44373945035153       -2.47150762706527       -7.19728868070043
H           53.41174590446610       -5.38905582668426       -7.77684594436076
H           51.91537842044310       -7.08453084312080       -5.58969307654831
H           51.82430779253274       -4.91158017305006       -2.77576461791729
H           55.48606050609413       -3.10828389672774       -3.28042723301665
H           57.29805883895417       -1.80471222887157       -1.78180232501081
H           57.14129303414990        1.89491278098805        1.95266066544411
H           55.23439414644094        3.11222473372394        3.37494495179432
H           53.39506854322925        0.37634471473469        0.73844459412864
H           53.69677088843176        2.00732868460940        5.18375045749186
H           53.55365077845359        4.43107203728925        7.78279491071299
H           51.82835486728271        6.74552627739486        6.53257185463972
H           50.67357400570823        6.56239492397209        3.60924540187849
H           51.32300584327275        4.54518213508386        2.64468979090219
H           49.89668167333281        2.54031149639936        3.67349390131933
H           48.10152979441944        1.13204948187107        2.24531281096315
C          130.41100232218579       -0.24077625937636        0.34312654407426
C          129.79781617180086        0.55307538617456        1.30369007156327
C          130.44463269284157        1.31676044797542        2.31542408176846
C          129.48007575861703        1.95573672076311        3.04222595934029
C          128.21129722389531        1.59003803192031        2.50819637611471
N          128.45484853926649        0.75372677258322        1.45577486641109
C          126.94540610992571        1.99694693467074        2.94542409626088
C          126.90308584372539        2.90231132600978        4.12052410261906
C          126.32388700701642        4.16843351564596        3.99717985678626
C          126.29205339096798        5.02302733211302        5.09181450077887
O          125.74904931165274        6.28009736253361        5.04377004873700
C          126.82979687877031        4.62091995731769        6.31183849778340
O          126.81010225046563        5.44394366606896        7.40703342831176
C          127.40428434779703        3.35505399049611        6.43758623151186
O          127.92110531707313        2.97132041395868        7.63035316393519
C          127.44326454882085        2.49996077865003        5.34233268554545
C          125.73563904948004        1.61256343239597        2.36129539190711
C          124.43162694947129        1.96731724721548        2.89228330292734
C          123.51877244710208        1.40809562960599        2.07109224550244
N          125.59171544817259        0.84197185668294        1.24791301258061
C          124.26565193796887        0.71078607234553        1.04239873463320
C          123.63880108080377        0.01945062092984       -0.01476737357379
C          124.28501506380427       -0.69195898116610       -1.04364685242250
C          123.65538786540617       -1.32625501213190       -2.14730391154744
C          124.62959052908951       -1.89845634436579       -2.91728401276069
C          125.88484317197708       -1.64422630695299       -2.29790304594957
N          125.62493884799834       -0.90175997336344       -1.17560984354289
C          127.14931183425527       -2.05207992077709       -2.73487955188798
C          127.20427564556206       -2.86278925969547       -3.97619418978877
C          126.54798506197767       -4.09171205417894       -4.04932495583420
C          126.60773512259379       -4.84581605004882       -5.21559650503169
O          125.98075099975823       -6.04467410801966       -5.29387243774466
C          127.31853830259209       -4.36775682004883       -6.31772256828568
O          127.35626371652197       -5.13080492506202       -7.45496114295676
C          127.97090123029527       -3.13952403047496       -6.24567898995592
O          128.64442186257580       -2.73429069551962       -7.36803850572161
C          127.91994454842877       -2.38745285200652       -5.07895782078429
C          128.35353477392840       -1.75167109887969       -2.08797092044479
C          129.65205389424358       -2.26161978643914       -2.50031795043675
C          130.55361837414029       -1.75902684168520       -1.63269942278993
C          129.80692973018549       -0.94658794598290       -0.68895127831157
N          128.48446032734870       -0.97518030200884       -0.98678361739329
H          131.49266135425543       -0.30297973819577        0.40831471173937
H          131.51290824206305        1.36911537791738        2.45283007466058
H          129.62942152165095        2.62668955590596        3.87242616875802
H          127.73317768938328        0.34393457456276        0.87223758103754
H          125.91710347932484        4.49355779738186        3.04683927682941
H          125.39139260209534        6.46646196411004        4.16575607893976
H          126.37592743172904        6.27293764114884        7.14995309274421
H          127.79557590717354        3.69630341124852        8.26469814808264
H          127.87492881641344        1.51409598494426        5.45747416089251
H          124.25907244004729        2.54753355303666        3.78429890265328
H          122.44312345060204        1.44412466841991        2.13709650872710
H          122.59219751646792       -1.33051716723521       -2.32571199727789
H          124.49402344054002       -2.44378038902949       -3.83687993929852
H          126.33825961304393       -0.55880702230720       -0.54062247134996
H          126.00879285133001       -4.48145721500952       -3.19560042292921
H          126.14020301903803       -6.41569061926862       -6.17743264780815
H          127.88846284790645       -4.65813130904801       -8.11463045988537
H          129.06780808662654       -1.87781306433561       -7.22420030271708
H          128.41854988675564       -1.42631501219464       -5.03441371623440
H          129.82369001615839       -2.92717022182738       -3.33106891673332
H          131.62137843880160       -1.91055627307258       -1.60456961336862
C           57.50364431651178        0.00997047202863        0.09090509638725
C           58.72840082856553        0.02739737035213        0.09405010222981
C           60.07106280947674        0.03668707780255        0.09603627353435
C           61.30201980237089        0.03762357935058        0.09039349222127
C           62.63989518954583        0.03368680461985        0.08333964434126
C           63.87086592327293        0.02326636047908        0.07551916357004
C           65.21330072118653        0.01697507143866        0.06724240797043
C           66.43831438750053        0.01238459721940        0.05381190874941
C           76.10493743533908        0.00560923161250        0.05463772595789
C           77.33029644916103        0.00692288471894        0.06224243116397
C           78.67180448416052        0.00220182252053        0.06814138046809
C           79.90321513705150       -0.00048864648048        0.06910635381498
C           81.24006563954626       -0.00383682126366        0.06706196628211
C           82.47148958287245       -0.00618716330477        0.06145812788286
C           83.81296364874889       -0.00769251796387        0.05306964435135
C           85.03833287540088       -0.00637218560028        0.04250420216525
C           94.69971083219362        0.00478777537850        0.06246508223506
C           95.92505989689552        0.00565704018938        0.07243749559586
C           97.26654858742393        0.00355653695632        0.07972008939039
C           98.49797202158894        0.00149703912110        0.08079186843170
C           99.83483090639471        0.00187183969171        0.07738381787821
C          101.06624068983012       -0.00070460218594        0.06808186651161
C          102.40769445395247       -0.00039110049186        0.05384763007115
C          103.63297689738987        0.00277991793506        0.03717685575147
C          113.29930956329180        0.03834581471325       -0.10161365442715
C          114.52424050827300        0.04873030987878       -0.11085808523858
C          115.86681601738846        0.05151718083348       -0.11710591742819
C          117.09781415683635        0.05704077031521       -0.12030987486771
C          118.43583360110489        0.05418764663587       -0.11867982202651
C          119.66671355564732        0.05606899415056       -0.10956242207362
C          121.00932774685199        0.04643419080619       -0.08820411412479
C          122.23381601860657        0.03916175364400       -0.05972647255927
C           67.84290542157035        0.00938936513357        0.04127848001733
C           68.46803504726221       -1.25291109929415        0.02866936272932
C           67.81738133442607       -2.51302237757072        0.05615210662720
C           68.78003781240628       -3.48459330940719        0.01007797525455
C           70.04716601633451       -2.84426342229408       -0.05537107355813
N           69.80791446137754       -1.49602331804257       -0.03032160031540
C           71.30523799693979       -3.45745704112851       -0.11842910407012
C           71.31626501547377       -4.93975371938012       -0.18725559510805
C           71.94605753491172       -5.68609000440116        0.80947669075264
C           71.96576646943721       -7.07719300276600        0.75880837348401
O           72.56798318065289       -7.81440138920507        1.72764316198075
C           71.35429958648592       -7.74117381064082       -0.30978550340863
O           71.36213997001758       -9.09663145269569       -0.39110745451686
C           70.72823833054028       -6.98671379311903       -1.30563565357950
O           70.15315434916440       -7.69823863637745       -2.32674634905334
C           70.69849261069444       -5.60019458303986       -1.25115810872909
C           72.53122295240340       -2.78989953157101       -0.12308687909930
C           73.81531779062162       -3.45500510602848       -0.25391592532903
C           74.75458597313909       -2.48784645733054       -0.20186778108474
N           72.71147118392975       -1.44363585464365       -0.01996504050996
C           74.04265282489632       -1.23436649049587       -0.05326450953266
C           74.70132819431733        0.00876136475777        0.04387166850595
C           74.07633951781577        1.26850026602049        0.12461562225180
C           74.72725761253892        2.52381207131033        0.24044543503361
C           73.76497631276281        3.49596027939958        0.26265953169991
C           72.49759492498661        2.86144225708091        0.15305166427451
N           72.73673385072631        1.51459446262586        0.08409161891398
C           71.24008491717036        3.47683206453151        0.13430107729022
C           71.23081356614776        4.96109383461922        0.17439324930793
C           71.84176571983596        5.69282944897590       -0.84430913542699
C           71.82952276265787        7.08231678943200       -0.80868333839109
O           72.41263921909437        7.80211126751561       -1.79770987027675
C           71.21289864113459        7.74510284331936        0.25382348440756
O           71.22050158618111        9.11486657422096        0.26465059764046
C           70.60738123351688        7.01425584589357        1.27302957087834
O           70.02770353723054        7.73420580689076        2.28410671097411
C           70.61055708767272        5.62545158744593        1.23592701087274
C           70.01369230851043        2.81155140065930        0.08111710501552
C           68.72993270274681        3.48523033328517        0.00188718475760
C           67.79006779278156        2.51734295784630       -0.01689524483990
C           68.50129552895861        1.25582673022910        0.03729295209279
N           69.83309633414333        1.46194519298803        0.08497396100662
H           66.74945287295121       -2.65016802682874        0.10980209564478
H           68.62718626566138       -4.55125602582403        0.03064398869845
H           70.53035920913743       -0.78391192688627       -0.04611571374892
H           72.41214473243735       -5.18199249517574        1.64853999198790
H           72.95837646270661       -7.24767776388397        2.40584533239326
H           70.89271693214751       -9.35518834624803       -1.20060771508492
H           69.75152048148914       -7.10655234075796       -2.97611402629994
H           70.22038292415779       -5.03795603198375       -2.04471192383177
H           73.95771435640803       -4.51558613643724       -0.38326194367017
H           75.82639191498062       -2.58583563781828       -0.26713826162124
H           75.79527022324868        2.65671908558918        0.30193165840242
H           73.91753515748415        4.55878648432672        0.35469989748386
H           72.01461883283950        0.80535876275693        0.01549872349659
H           72.30926452999864        5.18976603683191       -1.68091362428232
H           72.29701127411464        8.74575152932712       -1.59786247471114
H           70.75236749765710        9.41046386534040        1.06173344802659
H           69.62781807463482        7.14728410616989        2.93922807652586
H           70.14928661774059        5.06297690063315        2.03910143250784
H           68.58838893770037        4.55270133980534       -0.04779173715047
H           66.71824095652241        2.62047737005166       -0.07358080141028
C           86.44185963277317       -0.00602502597313        0.03205993993434
C           87.06905062373225       -1.26770248385227        0.02914469167613
C           86.41964758558585       -2.52824862313147        0.06267896768372
C           87.38332568373319       -3.49904420505459        0.02086949628170
C           88.64961682588617       -2.85759206432456       -0.04755850722477
N           88.40892014519228       -1.50939429872682       -0.02857922216545
C           89.90836970606799       -3.46943520245706       -0.10715537959657
C           89.91960058828093       -4.95199184144312       -0.17071748957694
C           90.54278494154173       -5.69547587878757        0.83217534605739
C           90.55738075046507       -7.08692817992704        0.78848614260166
O           91.15150307656420       -7.82160802356342        1.76421537106509
C           89.94842554861960       -7.75399438154182       -0.27961812345640
O           89.95075377768948       -9.10984308731033       -0.35360767141211
C           89.33021733587999       -7.00223148157822       -1.28244143833438
O           88.75742853180269       -7.71678800013571       -2.30261141601700
C           89.30474401510043       -5.61539863749245       -1.23450866130044
C           91.13310475789783       -2.79965563585308       -0.11182791172684
C           92.41890274974968       -3.46237337515286       -0.23572735450631
C           93.35576409267037       -2.49267480729599       -0.18592744464803
N           91.30981663142541       -1.45246458079734       -0.01431360607961
C           92.64060012248888       -1.24008920857723       -0.04507851010481
C           93.29613013300529        0.00497760761880        0.04925025047791
C           92.66906564882525        1.26415995994324        0.12545441671184
C           93.31842152310335        2.52012349238002        0.24225648598916
C           92.35517283599920        3.49155098903181        0.26095388848306
C           91.08893784901561        2.85586119607465        0.14742946579946
N           91.32938455603976        1.50919605097619        0.08008098400936
C           89.83039897845315        3.46962734282963        0.12327412281111
C           89.81712470353608        4.95373270426054        0.16515917313420
C           90.43254810120338        5.68961450636737       -0.84782617700543
C           90.41477462353524        7.07902215804280       -0.80973798402912
O           91.00182347892873        7.80279517506610       -1.79344081602617
C           89.78830064375130        7.73763731540812        0.24962715197027
O           89.79052438769119        9.10734242134965        0.26283607139832
C           89.17850547706611        7.00267443009194        1.26330656192666
O           88.58908752024338        7.71858210538749        2.27163203634882
C           89.18704492461470        5.61399638754576        1.22357575913770
C           88.60598752696325        2.80173975789127        0.06478852266354
C           87.32103596508124        3.47186459543520       -0.02376094180388
C           86.38368406072958        2.50152666154599       -0.04349404019392
C           87.09784682900562        1.24211222193108        0.02031959947197
N           88.42846604157361        1.45132688196072        0.07279967671428
H           85.35188320328324       -2.66631043117945        0.11702558366285
H           87.23164235104419       -4.56576629319441        0.04611983607538
H           89.13080671689879       -0.79680400330345       -0.04801140786331
H           91.00650572532503       -5.18894837947291        1.67107888838897
H           91.54013907897593       -7.25307124721341        2.44189881496648
H           89.48356776011643       -9.37084667701246       -1.16363442182464
H           88.36119945025466       -7.12715071395564       -2.95715575770183
H           88.83156274202668       -5.05525955281523       -2.03248777534374
H           92.56378920105342       -4.52339163305275       -0.35871239368249
H           94.42797112810014       -2.58854776671389       -0.24751327169767
H           94.38609649289420        2.65407945279979        0.30718277146623
H           92.50651617617582        4.55455363957873        0.35296771909283
H           90.60772293494770        0.79963578372545        0.00993537521442
H           90.90741379586632        5.18998717915312       -1.68232765469568
H           90.88050498800126        8.74565493381451       -1.59322594818888
H           89.31476891902263        9.39988129124188        1.05652859359028
H           88.18657310672253        7.12899625764183        2.92272443561575
H           88.72209419362922        5.04834982869871        2.02239925534859
H           87.17712586894966        4.53874749040005       -0.07893166234659
H           85.31191466304571        2.60172385678567       -0.10624249840858
C          105.03636967913913        0.00618440113890        0.01476896947132
C          105.66687946253289       -1.25361182815422        0.00577722733018
C          105.02218094735676       -2.51614894548396        0.05296858677173
C          105.98841005134997       -3.48374420987592        0.00101972794643
C          107.25160877519617       -2.83839626737151       -0.08924701733065
N          107.00655369081167       -1.49092996338237       -0.07063555710391
C          108.51077338130716       -3.44637101344008       -0.17033847175887
C          108.52400364114054       -4.92925488267449       -0.22631252639078
C          109.16671245064560       -5.66579953385258        0.76931490771040
C          109.17886065068281       -7.05757294115858        0.73596102130397
O          109.79098727746882       -7.78559283222343        1.70549067870306
C          108.54752024645882       -7.73198168770935       -0.31440288198384
O          108.54538300032245       -9.08841299080833       -0.37725075889534
C          107.91103257444419       -6.98709894198456       -1.31088015287629
O          107.31684862606475       -7.70858361568421       -2.31384181145674
C          107.88824873491639       -5.59992934292394       -1.27313380880212
C          109.73375158556152       -2.77345480121347       -0.20328786698441
C          111.01766756323437       -3.43417922155506       -0.35546797387966
C          111.95366409283055       -2.46274826241357       -0.32950705661280
N          109.90994316960342       -1.42625188695932       -0.11188844944575
C          111.23988426468738       -1.21122603072501       -0.17296824977000
C          111.89455146889374        0.03424450509442       -0.08641871283167
C          111.26578586012543        1.29055916461223        0.01401037864259
C          111.91307018749337        2.54778840924623        0.12980708955402
C          110.94721088036810        3.51559120168472        0.17626413539609
C          109.68099157981916        2.87671499732429        0.08043880828676
N          109.92443598243744        1.53166122354473       -0.00349740386544
C          108.42038861004191        3.48678304500875        0.08191267293215
C          108.40161073068315        4.97025421812469        0.14000400118237
C          108.99928839134722        5.72138265150429       -0.87234535352370
C          108.97252889842242        7.11015235409414       -0.81846001314976
O          109.54195650806872        7.84899120283037       -1.80145184841390
C          108.35459209077244        7.75275934530972        0.25561780601597
O          108.34665736025474        9.12230294498999        0.28348422955654
C          107.76271201211952        7.00256692019382        1.26873354780738
O          107.18021715258229        7.70307973644415        2.29181365965028
C          107.78066742885763        5.61459454341198        1.21360608005149
C          107.19669505963773        2.81664023576880        0.03432459573394
C          105.90973408697553        3.48546208573549       -0.03562421487711
C          104.97356718415250        2.51396327049909       -0.05082737246631
C          105.69019429410199        1.25533500814849       -0.00138931273064
N          107.02107005646910        1.46607027120834        0.03659589298521
H          103.95578450737202       -2.65747937503912        0.12352208450271
H          105.84046046006029       -4.55080334602275        0.03274876920498
H          107.72526517190002       -0.77563420983893       -0.10333322775320
H          109.64733655095860       -5.15344341492198        1.59506110327593
H          110.19547512794128       -7.21242913903319        2.36988297872479
H          108.06166566334262       -9.35484567733798       -1.17571906569976
H          106.90874009699593       -7.12320498020134       -2.96490061312397
H          107.39996589258575       -5.04524944886245       -2.06581486928735
H          111.16124221493817       -4.49524730146036       -0.47965031350633
H          113.02436477878418       -2.55661023007176       -0.41555209676409
H          112.98135031272378        2.68491285230060        0.17534934294242
H          111.09685454588154        4.57820927903932        0.27527355387544
H          109.20413530730443        0.82002997199053       -0.06623242008061
H          109.46640134752077        5.23438842013116       -1.71860382421194
H          109.41603714068971        8.78861253009212       -1.58923505183978
H          107.87778532557040        9.40247668861763        1.08568859424393
H          106.78948628970581        7.10326235143897        2.94075148440766
H          107.32931451023236        5.03683040042795        2.01156277612755
H          105.76359716851876        4.55238492996523       -0.08354985602069
H          103.90101391280614        2.61292661133941       -0.10089666625925
