185
 energy: -327.085293949496 gnorm: 0.000608960176 xtb: 6.5.1 (b24c23e)
Zn          28.53770661786053       -0.01586758140283       -0.03308696314220
C           25.12933815973454       -0.06851284266515       -0.10095396179846
C           25.76537823839845       -1.30214185410163       -0.02860535787317
C           25.09747857203994       -2.57002278074835        0.06339822021983
C           26.06121610714561       -3.52185026381567        0.13967511313083
C           27.33097705902057       -2.84728994915281        0.08355530081419
N           27.11580457835095       -1.50330721423756       -0.01138925290088
C           28.58501929051557       -3.46790150348940        0.14384579174410
C           28.60676838479478       -4.94960555437783        0.23795689472709
C           28.07402171073824       -5.73626154838340       -0.78347451905989
C           28.09593366518218       -7.12000900281049       -0.69746458703179
C           28.64852742853757       -7.73392196561887        0.42380473621912
O           28.68691090095423       -9.08609204013643        0.55087391572563
C           29.18129346235767       -6.96006669888914        1.45299741106901
C           29.16171537201256       -5.58011088868543        1.35420285029612
C           29.81998745073875       -2.81063127847893        0.12657895269572
C           31.10329095751507       -3.45692925447850        0.12882157498968
C           32.04431292824060       -2.47932404273646        0.08858663918816
N           30.00646303664285       -1.45470225179873        0.07366441122279
C           31.34697275311763       -1.22743918871331        0.05531665317415
C           31.97111791917089        0.03545791242146        0.00515779439540
C           31.31114644353541        1.27977243966760       -0.04598847472278
C           31.97230143579231        2.54934337575727       -0.12046676294368
C           31.00354939263736        3.49897730635179       -0.17163437355245
C           29.73911352333735        2.81819696467178       -0.12180812947554
N           29.96453347131624        1.46897462784136       -0.05213427286385
C           28.48552909287092        3.43769557322068       -0.17168532549273
C           28.46261298036242        4.92157020834706       -0.21795090463316
C           28.99405591122453        5.67235047405524        0.83358905532507
C           28.96978651623690        7.05541618513841        0.80120257107405
C           28.41519165115247        7.71114085603999       -0.29627004202137
O           28.40942178514538        9.06976748386253       -0.29730610195832
C           27.88558923380823        6.97654301150066       -1.35440872512521
C           27.90830720279156        5.59089686965028       -1.30926455060640
C           27.25017136612564        2.77760707010931       -0.17885374602772
C           25.96122032451511        3.41724475992400       -0.18880543692549
C           25.02552381321903        2.43497826876651       -0.17640872547923
C           25.72985968785069        1.18399961515605       -0.14728203466337
N           27.07395902882462        1.42497764367956       -0.14766337592956
H           24.04374559938569       -0.08420701293450       -0.10594123506582
H           24.02689155205796       -2.70274485449843        0.07669663501526
H           25.92820860035447       -4.58740527521226        0.23840949499055
H           27.65428419388153       -5.26016157313463       -1.66273669916067
H           27.68674496609827       -7.72656125268657       -1.49840701508600
H           28.29197541233174       -9.52261077357047       -0.21569462274132
H           29.60451240802389       -7.45088495647979        2.32070213020436
H           29.56611843789483       -4.97776061789841        2.16007834291427
H           31.26238077203808       -4.52319570478260        0.14396995582845
H           33.11707604976713       -2.58895092639717        0.07680577803033
H           33.04164174334073        2.68805962053333       -0.13806457164210
H           31.13218851508591        4.56643625440051       -0.25146953033272
H           29.41448876128010        5.16239715352237        1.69320733227752
H           29.37470735109314        7.63934096360360        1.61852724753937
H           28.00211063652431        9.41901456016806       -1.10127896820473
H           27.45921294989840        7.49120450670645       -2.20890286846934
H           27.50684990807918        5.02066192332154       -2.13971473131699
H           25.79696736716442        4.48297472266987       -0.19084978538110
H           23.95150800320977        2.53724894073376       -0.17735024616833
Zn          60.63015976520049       -0.00030820937086       -0.01056366968083
C           64.03753741765722        0.04888283386132       -0.12622353346331
C           63.39778017346516        1.27906973722932       -0.22067296262140
C           64.06191171936500        2.54837927831202       -0.31968491442932
C           63.09561541495631        3.49959974371415       -0.36478227490661
C           61.82787151456088        2.82163880970709       -0.30402896565095
N           62.04693273559243        1.47818291526803       -0.21155201917925
C           60.57276238334241        3.44307906625759       -0.30796068257764
C           60.54824326617559        4.92285804032300       -0.42893977133752
C           61.05629379426404        5.55075453251695       -1.56640962341484
C           61.03213916579145        6.93204003991156       -1.68436994542697
C           60.50230411093089        7.70419337261373       -0.65348641229438
O           60.46270136056006        9.06037376111262       -0.72570827726336
C           59.99464967758937        7.09012516723168        0.48981244588390
C           60.01611477265681        5.71055947404424        0.59459799786243
C           59.34021548248010        2.78887497476640       -0.20749059104723
C           58.05471178911626        3.42817247736986       -0.26564810198853
C           57.11685905404830        2.45289724902058       -0.15593558213935
N           59.15793377003990        1.43790517700499       -0.07353743854757
C           57.81818127101145        1.20847122750544       -0.03653756178869
C           57.19772730576342       -0.05207488332024        0.07806989071199
C           57.86119491489957       -1.29197704399052        0.17228899593081
C           57.20363670296225       -2.56204824678153        0.26748414578104
C           58.17510224982644       -3.50782430610057        0.33582350343401
C           59.43760329577963       -2.82327421113951        0.28873425314660
N           59.20832226268818       -1.47720126933807        0.18133768790007
C           60.69278205930760       -3.44085550290293        0.31677453204296
C           60.71981268670754       -4.91695394543719        0.47435929251025
C           60.19571831753949       -5.51693324179219        1.62206279559438
C           60.22431855773750       -6.89117548273836        1.78058527431705
C           60.77569725967145       -7.69052022327025        0.78109136657251
O           60.78595415450697       -9.03629022544357        0.96733208869095
C           61.29773833652414       -7.10749544572278       -0.37101612874628
C           61.27090479763528       -5.72892042016832       -0.51719345088764
C           61.92599556811539       -2.78503875132669        0.21221661090913
C           63.21698180053096       -3.41701727147848        0.27998921081364
C           64.14939494679729       -2.44039398250779        0.14823631382892
C           63.44105599053128       -1.19898749713535        0.01014039594831
N           62.09785363526944       -1.44059175601281        0.05558536683032
H           65.12293203526930        0.06594538923967       -0.14646971083219
H           65.13203897056290        2.68361418521020       -0.34195667745275
H           63.22573800634278        4.56860836519521       -0.42065764988061
H           61.45815629126235        4.95030458155532       -2.37504162610047
H           61.42189149819812        7.41409000000937       -2.57463761474460
H           60.83911935069297        9.37921761119941       -1.55689221465971
H           59.58926360931478        7.70335043703449        1.28510639440442
H           59.63152527140139        5.23344903894890        1.48914942981007
H           57.89178721476994        4.48668720080348       -0.38980157500176
H           56.04365749899638        2.55866430672181       -0.16127890362974
H           56.13465854919507       -2.70440177917157        0.27491269960618
H           58.04953939408421       -4.57685448948257        0.39766015086057
H           59.77768317289284       -4.89436791360434        2.40527471399559
H           59.82526397553760       -7.35786600595651        2.67271968696549
H           61.18983505942894       -9.49197333882703        0.21667669873348
H           61.72152800700275       -7.73401306746314       -1.14863567505355
H           61.66650469966099       -5.27760071693150       -1.42040108980857
H           63.38488720020157       -4.47244231557225        0.42371814061894
H           65.22370944581947       -2.53946650282544        0.15187546523512
C           37.17304624323382        0.06473530287335       -0.04349466952040
C           35.94473392276365        0.06623037964350       -0.03062543009606
C           34.60037366371231        0.06053082875319       -0.01584823564200
C           33.37650925454010        0.05304726292153       -0.00376811726616
C           38.51731434178424        0.06035153609896       -0.05498972828805
C           39.74139034746014        0.05315399543417       -0.06209183980992
C           53.22405879735661       -0.09051554792037        0.07627529231848
C           51.99584909709971       -0.08883755393432        0.05843024612833
C           50.65160087606375       -0.08247121601063        0.04431576795723
C           49.42762047851277       -0.07281333281895        0.02844917515880
C           54.56850868991760       -0.08548808447334        0.08131422993300
C           55.79238184164881       -0.07362555145362        0.08504725681469
Zn          44.58472813930681        0.00021372419235       -0.03558971291864
C           41.14621607850471        0.04222152253249       -0.06203100560696
C           41.79769545309391        1.10580810987738        0.59486850182257
C           41.12757699182731        2.17260991842705        1.27725332650523
C           42.08985355631783        2.99014397156018        1.77683633598587
C           43.35771284595507        2.43364975155230        1.39591572604936
N           43.14284327287814        1.28352401648803        0.68429365415202
C           44.60750700836359        2.97064432441067        1.72412901726390
C           44.61791144634389        4.24763235818529        2.48177482002808
C           45.17862518849198        4.31123538363136        3.75967251206588
C           45.18856435259610        5.49776536167775        4.47147313678836
C           44.64009848659393        6.64731585532701        3.90601758153947
O           44.67016485920287        7.79642800948968        4.62984280758343
C           44.08064048828954        6.60025622876340        2.63131205123225
C           44.06837038988384        5.40478986860217        1.92927700918715
C           45.84881661884314        2.41018645460648        1.40316048072243
C           47.12559661502814        2.99554511645933        1.70247623625955
C           48.07504786958491        2.15110057074574        1.22372866992001
N           46.04568979983866        1.23058628245352        0.73600032923468
C           47.38813862746733        1.04803119986236        0.62008125357513
C           48.02301564057871       -0.05264143155767        0.00952102101001
C           47.37081283990516       -1.13204710236507       -0.62019520001694
C           48.03887659969005       -2.25444202254401       -1.20873721423131
C           47.07691334795059       -3.06519075854003       -1.71983988401082
C           45.81156727664791       -2.43961109780617       -1.45536722536224
N           46.02698229849551       -1.27042807999749       -0.77588017496169
C           44.56264506396015       -2.95764649616884       -1.81678494081851
C           44.55562697707379       -4.22121716102070       -2.59613010747378
C           43.94485890359532       -5.36823675432866       -2.08847206823828
C           43.93851268096805       -6.54877724966758       -2.81545439300844
C           44.54192821764888       -6.59127291602360       -4.07005135760721
O           44.55498744421534       -7.72572399576899       -4.81724760497026
C           45.15336585927523       -5.45217583522679       -4.59034538179283
C           45.16050605451272       -4.28069390759973       -3.85414784701869
C           43.32125093820763       -2.38843761378077       -1.51096690603940
C           42.04629350526389       -2.90579692806363       -1.92238160538444
C           41.09657779418649       -2.07204680171552       -1.42548366052200
C           41.78179352540877       -1.03145359197378       -0.71828297932918
N           43.12340316337296       -1.24175176726780       -0.78872798354198
H           40.05749815750902        2.27325792667769        1.36550333818455
H           41.95390054672404        3.88447293480749        2.36338062577250
H           45.59476074210883        3.41418163339071        4.20446862857241
H           45.61625047955496        5.54801410936302        5.46517968096331
H           44.26141375435824        8.52699681409184        4.14651114688237
H           43.65873282280284        7.49857744165116        2.19345562417113
H           43.64340147952460        5.37221852213188        0.93213882525991
H           47.27578987401269        3.93821000270781        2.20360315217218
H           49.14683644341775        2.26256802352149        1.26607442261327
H           49.10726810324248       -2.40072440436431       -1.21941145024279
H           47.21095123738384       -4.01093786771806       -2.21969574209960
H           43.48573104465161       -5.34051542821843       -1.10647941901079
H           43.46778832843287       -7.43924532512123       -2.41267544353118
H           44.10466903463956       -8.45067315632585       -4.36333907831085
H           45.61548882112523       -5.49834345403576       -5.56871380742461
H           45.62533287712191       -3.39112310106341       -4.26452017346515
H           41.89704532040655       -3.78678893012821       -2.52560415971044
H           40.02593474592200       -2.14396186524707       -1.53315614595960
