404
 energy: -749.061274656606 gnorm: 0.000982885969 xtb: 6.5.1 (b24c23e)
C           70.60429615883342       -0.12701721731113       -0.26816493164777
C           71.17839431368650        1.10395270455825       -0.55781655037069
C           70.49186689605344        2.31825956213829       -0.84007715460000
C           71.42729927777008        3.28644003480927       -1.07372435487503
C           72.71593510513681        2.69208854454258       -0.95130255314116
N           72.51470996925768        1.37961211926950       -0.63189610629275
C           73.96221623078128        3.31082510539742       -1.10047918154548
C           73.94903987440028        4.74822357471407       -1.47057257956147
C           74.50237345710043        5.70218106046786       -0.62126373602612
C           74.48439522341179        7.05266800367753       -0.96753488830501
C           75.08396717062735        8.02287791411118       -0.01700529271214
O           75.01855463741740        9.29467610554617       -0.43711994989305
O           75.58594692222533        7.72231904325354        1.03541908135117
C           73.91327774933100        7.45792051914495       -2.17380919213209
C           73.36332676439814        6.50977644421131       -3.02201608211528
C           73.37769877040756        5.16616162528807       -2.67477052256346
C           75.19787888939888        2.68320728141650       -0.92915138196618
C           76.47673745945025        3.33789725546128       -1.14113736394846
C           77.42579126333983        2.41489250562786       -0.88293929244264
N           75.39163727501480        1.38477758267305       -0.56795180849301
C           76.72576608478474        1.19667585508536       -0.52288482613305
C           77.39835272184477        0.00649562828731       -0.17908596226903
C           76.79716538324946       -1.22301848925331        0.15211725050981
C           77.47500336107652       -2.41216386694396        0.53037996218565
C           76.53501768144194       -3.37605088489335        0.76894293516478
C           75.25304456881111       -2.80608759166591        0.53378544402909
N           75.46342761982856       -1.50210122713328        0.17060191439635
C           74.00831072931670       -3.42987234510755        0.66721729729527
C           74.01757575713985       -4.86110909734324        1.05848051679742
C           74.62888697569170       -5.81711361674505        0.24426289194616
C           74.63752894287131       -7.15614824193157        0.60989677711521
C           74.04042246871849       -7.55696436091076        1.79329366140309
C           73.42755700885675       -6.61086036152594        2.61631077376177
C           72.80116420405820       -7.07970685989037        3.87814676433619
O           72.23711871611621       -6.09705699955859        4.59490736383726
O           72.78771097570944       -8.22712342424241        4.24388967502942
C           73.41546848813708       -5.26736451376051        2.24764066643777
C           72.77237651363424       -2.80741508482639        0.46452549505514
C           71.48883842629130       -3.48620399896448        0.55762037772206
C           70.54647623462716       -2.55848581507425        0.29598777736518
C           71.25323690915698       -1.31684069649668        0.03404611003610
N           72.59168630167161       -1.50660910829223        0.13538614093339
H           69.51933981345492       -0.15245912532344       -0.28056089433576
H           69.41895309718089        2.42524571353073       -0.85274974693146
H           71.24650006225367        4.32438181223938       -1.30170591069208
H           73.25903003688869        0.71074676841312       -0.46513599562611
H           74.93985370401388        5.40669395434225        0.32604500576519
H           75.42863383731687        9.86256967694213        0.23523762036761
H           73.90161901573515        8.50739032965114       -2.44188366753095
H           72.92061320322485        6.81710922375674       -3.96273058381978
H           72.95728830417329        4.42877432312159       -3.34954770577458
H           76.60823795500448        4.36015467964654       -1.45660774069191
H           78.49780072314083        2.51986680891742       -0.93072826220861
H           78.54561673952320       -2.50661579756444        0.61379427704168
H           76.71080733760289       -4.38981435199940        1.08986666183939
H           74.72276484052001       -0.84139841641443       -0.04041724774396
H           75.08506109184688       -5.50799124230463       -0.68963472417084
H           75.11169134771227       -7.88732455394314       -0.03486370555255
H           74.03925781662143       -8.59839462131576        2.09456814575596
H           71.85323301229363       -6.48293787248465        5.39898383128290
H           72.95084500359987       -4.53295436509399        2.89480139151672
H           71.35321311003594       -4.53223174743456        0.78071867152522
H           69.47430188011752       -2.67375016761780        0.26824762347498
C          157.52104215001432        0.03108555083818       -0.33999874830402
C          156.94451713197489       -1.21165530351496       -0.11185778833820
C          157.62839257134840       -2.44156332145447        0.10084952492821
C          156.69084928601569       -3.41895029605670        0.28192953238616
C          155.40340253019696       -2.81895452090537        0.17576073010866
N          155.60758287456363       -1.48825743696510       -0.05381959167846
C          154.15593953555691       -3.44051451497221        0.30094428804405
C          154.16521044050708       -4.90644364268325        0.53440724947815
C          153.62803977368350       -5.43896343407178        1.70288190781765
C          153.64138308401658       -6.81550173732114        1.92399030690351
C          153.06014685927252       -7.32204697640945        3.19293741897746
O          153.11173791028051       -8.65689814180420        3.31032122814397
O          152.58301994559702       -6.62258422361871        4.04954206164787
C          154.19141958146852       -7.67174063191345        0.97021556546713
C          154.72546105410811       -7.14402416696787       -0.19473785126758
C          154.71591996527795       -5.77335506854936       -0.41223154948375
C          152.92184296992380       -2.79174553727069        0.22346386205766
C          151.64146120819922       -3.47233642464288        0.30383434007153
C          150.69431065109106       -2.51971312239317        0.18276891814509
N          152.73069115145478       -1.45609175280201        0.04044987558574
C          151.39694624369344       -1.26111051762702        0.02146765442119
C          150.72698707868119       -0.02917505440619       -0.12285047506967
C          151.33125094221728        1.22920711164590       -0.30742087695350
C          150.65745743356493        2.47360983156959       -0.42611461825736
C          151.59966077288635        3.44812849954765       -0.60540278033112
C          152.87879601721986        2.82568031664645       -0.61029230373947
N          152.66487292727479        1.48632214452614       -0.41864760769491
C          154.12413999591172        3.44541665691884       -0.75505216598711
C          154.11632997844771        4.91299589925592       -0.97558942200941
C          153.50333829135468        5.45684669252530       -2.10651051524618
C          153.49584818907769        6.82899032605154       -2.31589389171812
C          154.09451911159402        7.67487946692382       -1.39738682358931
C          154.70785504119868        7.14361728775423       -0.26174834002933
C          155.33307454655596        8.08400249786109        0.70206345282647
O          155.89277915005991        7.47693178231438        1.75839511052341
O          155.34855007910275        9.28106266615051        0.56998163093832
C          154.72023666206880        5.76590745596038       -0.05416414993545
C          155.35841432886832        2.78983374797416       -0.70658198022129
C          156.64195174211093        3.44541254411098       -0.90525327604237
C          157.58251998663306        2.48700349615226       -0.78678081420133
C          156.87443304142400        1.24581967016036       -0.52601363937748
N          155.53708176300310        1.46487119616625       -0.49269825588560
H          158.60572605119640        0.04516880776821       -0.37468518343557
H          158.70115791940654       -2.54966610532350        0.11750934729330
H          156.86948159938382       -4.46322975183742        0.48087998152991
H          154.86496287807222       -0.80470860006849       -0.15623801090685
H          153.20692121348998       -4.78738054115947        2.46059659964328
H          152.71433334209274       -8.90697883868956        4.16034810173432
H          154.19897650667198       -8.74111638076393        1.14273008574232
H          155.15162218304798       -7.80381096322560       -0.94194073822161
H          155.12380565306520       -5.36887154945063       -1.33189556254716
H          151.50769387053353       -4.53515747288059        0.42368659179924
H          149.62196460253298       -2.63142441426983        0.19279535150467
H          149.58797415937542        2.59822228305177       -0.37350283915211
H          151.42774494687995        4.50646834354780       -0.71491589374776
H          153.40292923936974        0.79246357860544       -0.36009365096144
H          153.04459355849644        4.79560507983758       -2.83323137367653
H          153.02102000686287        7.23608107942144       -3.20131036777060
H          154.09605536711507        8.74900295626700       -1.54436165650994
H          156.27533005863182        8.15595215542783        2.33752963790457
H          155.18636032209739        5.35667715332960        0.83426303762139
H          156.77847221469753        4.49370694706285       -1.11696342840815
H          158.65418058526049        2.57816191068231       -0.86975877715883
C           82.59963618250445        0.04049050446168       -0.08215927366280
C           81.37132383756868        0.04456690957956       -0.10879175786967
C           80.02747976591192        0.03903599114661       -0.13372293381943
C           78.80364529365799        0.03223323787783       -0.15859378503628
C           83.94323315116152        0.03622154473359       -0.05279688947800
C           85.16713397733768        0.02755995745193       -0.02231269664127
C           98.63890933143716        0.01067603827710        0.06888901250096
C           97.40994496519528        0.00869071156460        0.07017376874492
C           96.06660548003184        0.01062921653460        0.06875119253454
C           94.84198894845895        0.01015943231621        0.07666881936249
C           99.98222045919904        0.01283010068372        0.07072567468277
C          101.20680764396852        0.01138267410483        0.07143085951343
C          114.67780877295631        0.01487990578567        0.04323594234866
C          113.44880817089289        0.01500636329354        0.04030886582435
C          112.10554475972204        0.01559557929372        0.04303804187565
C          110.88096326460271        0.01700960430012        0.05025202365961
C          116.02106481411140        0.01577177422779        0.04780213518550
C          117.24567584786135        0.01503267760289        0.05087781148588
C          130.71632800689076        0.01812445376929        0.07022659429990
C          129.48734459458734        0.02037343130736        0.07014595975505
C          128.14403250468848        0.01798130947857        0.07094547976175
C          126.91943517238424        0.01923511078032        0.07474939000866
C          132.05966029038345        0.01785915808894        0.07041142295501
C          133.28425796241879        0.01233617644852        0.07367759719870
C          146.75464616380989       -0.04128768583371       -0.02601369365853
C          145.52623671894486       -0.03585518636372       -0.00438099681272
C          144.18259062102459       -0.03252185629641        0.01779899151771
C          142.95829676664678       -0.02437991321583        0.03495279159449
C          148.09829225826297       -0.04203835567665       -0.05496562581917
C          149.32213724672698       -0.04155482418158       -0.08226447110372
C           86.57133198594910        0.02254326760300        0.00865034301565
C           87.19860674221680        1.26988560845483        0.19360947946178
C           86.55129182925913        2.52438892262756        0.33506308243197
C           87.51557217062812        3.47576440941991        0.52759127774250
C           88.78018936482620        2.82670517086353        0.51523898474886
N           88.53835515572456        1.49670537489875        0.29956687555254
C           90.03858766210308        3.42037369098235        0.67316618981442
C           90.04661664143012        4.87983073675004        0.94631185052959
C           90.65262582310680        5.76375548718262        0.05825788503579
C           90.65741975348581        7.13374635015380        0.31756422980555
C           91.31543635600738        8.02634051771915       -0.66984036739234
O           91.26894231499091        9.32355873044023       -0.33345735727038
O           91.84653410092554        7.64657700606410       -1.68170460176554
C           90.05600250074853        7.62884776608462        1.47453629547188
C           89.45289581472286        6.75041484021622        2.36086881909506
C           89.44476346897791        5.38738953377104        2.10023167741352
C           91.26541507916589        2.76067845094639        0.59508024130439
C           92.54843246260999        3.40788934194407        0.80535437696940
C           93.48902346129641        2.45676133498088        0.63244072048536
N           91.44734558689169        1.43818497535379        0.32528468336812
C           92.77890671026083        1.22928905292926        0.33067636991361
C           93.43801721469468        0.00874119680528        0.07866710247474
C           92.81171005311791       -1.22818280615030       -0.17018961579714
C           93.46065032227325       -2.46015354673239       -0.44249106810790
C           92.49617539165837       -3.41720640119608       -0.60224979447419
C           91.22938498970295       -2.79684133879244       -0.42453535206426
N           91.47105583348805       -1.47218772854067       -0.17601639434471
C           89.97013698056317       -3.40377477375768       -0.50221651293319
C           89.96003730456275       -4.86879167728425       -0.74356789320405
C           89.36539836268247       -5.39337204959373       -1.89326719484640
C           89.35745246212817       -6.76211705804481       -2.12319433081074
C           89.93981050884507       -7.62366685716536       -1.20864406520916
C           90.53633003612883       -7.11162763823810       -0.05546997316792
C           91.14910201997445       -8.06730416965095        0.90130915842095
O           91.70413481447511       -7.47616112476975        1.96939050713969
O           91.16133060791078       -9.26237348301524        0.75331693149638
C           90.54696905166058       -5.73729491916100        0.17409099553118
C           88.74280479123063       -2.75168800167745       -0.37375001550226
C           87.45872064119636       -3.42896743649998       -0.40691106797948
C           86.51803478716931       -2.47178755284052       -0.26868161992948
C           87.22904145631854       -1.21531986486027       -0.13958150672508
N           88.56146160409673       -1.41438732528900       -0.19410417681935
H           85.48437322114268        2.67187329106745        0.29048281076662
H           87.36618925478430        4.53530205401567        0.65647546479561
H           89.25823347389036        0.78578680689992        0.22470283474068
H           91.11456361402600        5.39786248703775       -0.85215573331965
H           91.71714721917610        9.83735208696120       -1.02485745183482
H           90.06274029147563        8.69328616508153        1.67529255824936
H           88.98612520693504        7.12778137251461        3.26367299425362
H           88.98199071791458        4.70472342225474        2.80421982500963
H           92.68821502655713        4.44578552719997        1.06025149646502
H           94.56085599713245        2.54829409201711        0.70486478350342
H           94.52886844088536       -2.58826756401870       -0.50992268774302
H           92.64712890665547       -4.45925752754450       -0.83206581528271
H           90.75052636095840       -0.77437309054966       -0.02404871976130
H           88.92016482033895       -4.71940490062728       -2.61647278585074
H           88.89562923317868       -7.15447441253929       -3.02200234239887
H           89.94192255236565       -8.69535800631628       -1.37243730881494
H           92.07839961605534       -8.16475013454394        2.54273610846927
H           90.99825924750918       -5.34372344461074        1.07723333221184
H           87.31787369205392       -4.49286085092989       -0.50810592887380
H           85.44554557827544       -2.58001622774638       -0.24389287534283
C          102.61074614846645        0.01239620412797        0.07255083513948
C          103.23692450084064        1.25996818796952        0.26155180215316
C          102.58763087221585        2.51089251035010        0.42343633833166
C          103.55193221119912        3.46557618055714        0.59919573485191
C          104.81857589993922        2.82183018885572        0.55768686349190
N          104.57750822743677        1.49156660903719        0.34164775887026
C          106.07778134823131        3.41931949990355        0.69262900211373
C          106.08748049080674        4.87918364873507        0.96375841851540
C          106.67637917887724        5.76252347478509        0.06360625794410
C          106.68352865156803        7.13298103811195        0.32027993501045
C          107.32297265636824        8.02490574347257       -0.67997685430856
O          107.28033277096176        9.32259809545233       -0.34496229031559
O          107.83710538184899        7.64413537817729       -1.70012848585687
C          106.10172013952797        7.62923239716261        1.48673117995311
C          105.51593680731351        6.75142116785540        2.38520382225953
C          105.50550158564411        5.38786314619716        2.12729064429691
C          107.30496241238414        2.76258490795116        0.59589241977401
C          108.58900022195316        3.41236342653318        0.79126189817442
C          109.52931803753781        2.46233299254005        0.61089225247669
N          107.48627557005958        1.44031834567256        0.32472120820643
C          108.81824224261453        1.23363869839618        0.31660298302810
C          109.47706142980027        0.01448006384122        0.05744302680839
C          108.85102533992877       -1.22198742549845       -0.19489145790338
C          109.50030035736962       -2.45082585404425       -0.47998216290749
C          108.53625914314658       -3.40762088842712       -0.64437458417245
C          107.26966465914809       -2.79042056319076       -0.45556030443593
N          107.51070710029194       -1.46773368638374       -0.19641196748650
C          106.01062734685492       -3.39817732881528       -0.53219733367525
C          106.00049060668000       -4.86056882486985       -0.78952915547788
C          105.40136658874147       -5.37321830560387       -1.94223050977595
C          105.39248625429614       -6.73955339920762       -2.18611435910773
C          105.97809155310213       -7.61045750685145       -1.28255882717279
C          106.57899285588307       -7.11029903903719       -0.12646506879176
C          107.19466830427187       -8.07566182446179        0.81864350816572
O          107.75231342689548       -7.49540401667236        1.89138754088470
O          107.20687647306313       -9.26912306876529        0.65832584398972
C          106.59082090494336       -5.73836383505563        0.11696909749359
C          104.78363854003830       -2.74989631714546       -0.38547138405907
C          103.50061100292690       -3.42925532887884       -0.41483774284049
C          102.55983542769263       -2.47667115996674       -0.24879078623979
C          103.26988131393429       -1.22075287137039       -0.10847583221629
N          104.60159822702812       -1.41556233711874       -0.18344052731911
H          101.51943874576426        2.65424463959011        0.40149278984594
H          103.40088234881506        4.52397930829514        0.73527534738990
H          105.29873735843456        0.78427809480808        0.24762257851419
H          107.12304334706465        5.39568238735345       -0.85402041103844
H          107.71545218825791        9.83593092357541       -1.04502589310772
H          106.11027110053953        8.69404746263118        1.68544145452067
H          105.06471300417157        7.12968247819540        3.29551486858781
H          105.05678024289618        4.70575773792609        2.84085486636186
H          108.72964950756472        4.45089192513403        1.04311551161460
H          110.60167558534985        2.55569996143302        0.67248616546757
H          110.56836745975333       -2.57701498630954       -0.55307863233612
H          108.68742876439231       -4.44743688032121       -0.88393945883330
H          106.78979666825261       -0.77242325188300       -0.03499996975746
H          104.95310071852599       -4.69187416305883       -2.65658346044925
H          104.92711297228992       -7.12270453591963       -3.08704951053077
H          105.97921359644720       -8.68043807110902       -1.45716880214001
H          108.12828222507464       -8.18982238118596        2.45653250290830
H          107.04555043530087       -5.35401200600979        1.02234752385951
H          103.36076258933164       -4.49160094710420       -0.53225153927844
H          101.48798414935946       -2.58774296559901       -0.21249954660875
C          118.64954823719273        0.01540468270613        0.05780985528022
C          119.27504028409741        1.26333534590055        0.24679931547599
C          118.62507514970883        2.51477670996076        0.40206562447009
C          119.58852022549522        3.46961235807217        0.58157222341760
C          120.85524703275772        2.82548128872113        0.54908715781206
N          120.61514166836207        1.49483305004572        0.33408040961668
C          122.11373086366594        3.42266172702245        0.69137639797727
C          122.12235078799061        4.88278069193248        0.96089863247657
C          122.71923971491194        5.76468967108104        0.06459821415019
C          122.72580441367160        7.13537392802337        0.32004247038653
C          123.37467831097568        8.02560813586872       -0.67563843037851
O          123.33197112912035        9.32355208394946       -0.34153689185706
O          123.89604006289605        7.64331160823846       -1.69155509284915
C          122.13505235085020        7.63337185040414        1.48124013624109
C          121.54106609943553        6.75703248925115        2.37575799878440
C          121.53149378687696        5.39322202310307        2.11918797173393
C          123.34125377204241        2.76519021185929        0.60323929815556
C          124.62433670730842        3.41442775856922        0.80630197545851
C          125.56533553861851        2.46400122697692        0.63161436965728
N          123.52359984881392        1.44279726069555        0.33361150451604
C          124.85555306607695        1.23545670386175        0.33375286100975
C          125.51546995227201        0.01629526896085        0.07750075763213
C          124.89046769731881       -1.21983407652548       -0.17909248102454
C          125.54090619548617       -2.44803583949557       -0.46406168299863
C          124.57758533743215       -3.40466984354982       -0.63367900231268
C          123.31022872358812       -2.78795744071085       -0.44857630519768
N          123.55013166334864       -1.46569946880769       -0.18638969727427
C          122.05145905359579       -3.39588612975512       -0.53010149830122
C          122.04234084314072       -4.85787024773032       -0.78929502527841
C          121.44385326803966       -5.36916501620098       -1.94297830264433
C          121.43632808137373       -6.73506354250128       -2.18928232336270
C          122.02289973261691       -7.60697969489040       -1.28732474961318
C          122.62310600249288       -7.10825368649198       -0.13023908462148
C          123.24019482687068       -8.07459690064288        0.81291292716356
O          123.79699732026290       -7.49567494944957        1.88683929714749
O          123.25427535095406       -9.26772104480341        0.65011792919479
C          122.63329311833250       -5.73676517428956        0.11577984006330
C          120.82398007758353       -2.74771661437674       -0.38723382961569
C          119.54105726151063       -3.42720814973516       -0.41964347536611
C          118.59968905902990       -2.47440685641515       -0.25825854365549
C          119.30923445743487       -1.21823291875066       -0.11768086939423
N          120.64117810904840       -1.41311309448408       -0.18752819230110
H          117.55706617884748        2.65831386206875        0.37341560185562
H          119.43687272660375        4.52833985847828        0.71445658795806
H          121.33677533517503        0.78722933935294        0.24573323679085
H          123.17283084848580        5.39653473610642       -0.84909368879608
H          123.77378059461702        9.83567866127189       -1.03828763288143
H          122.14311203679119        8.69836587953687        1.67900210935175
H          121.08280444467596        7.13664071533162        3.28198187193467
H          121.07649480590550        4.71227360105865        2.82987657075247
H          124.76393508560852        4.45289240998442        1.05894084511484
H          126.63733278404951        2.55692276646118        0.69969233246131
H          126.60925038517038       -2.57403285816923       -0.53333656463282
H          124.72988234813845       -4.44397574059134       -0.87468157791016
H          122.82850454745068       -0.77066441292762       -0.02700346855960
H          120.99513070560478       -4.68701873335866       -2.65628733292331
H          120.97141495611837       -7.11706270029756       -3.09094822374319
H          122.02535615605325       -8.67662362085749       -1.46397051589868
H          124.17416742161681       -8.19064650090595        2.45047717639544
H          123.08730496863082       -5.35364803816328        1.02204958535691
H          119.40162079391229       -4.48979227673799       -0.53541177819833
H          117.52772492110681       -2.58548586157601       -0.22521270874981
C          134.68821196143884        0.00765313307101        0.07553167150945
C          135.32013422879515        1.25354617083423        0.25581599168052
C          134.67680904370116        2.50866041115424        0.40954862850532
C          135.64559314064238        3.45967141061519        0.58005199136345
C          136.90927439514033        2.80965469583657        0.54284829611011
N          136.66176948498912        1.47923991718154        0.33458876184837
C          138.17109588540580        3.40205328880998        0.67392968658302
C          138.18759523366552        4.86295206576016        0.93877528615571
C          138.78152244946651        5.73987292101961        0.03564855509256
C          138.79580515221107        7.11120639635809        0.28726465909915
C          139.44113556646968        7.99594614426616       -0.71556254745081
O          139.40755487746088        9.29476818331448       -0.38407055098974
O          139.95237395378541        7.60881577270592       -1.73481774474872
C          138.21571859576392        7.61488557246291        1.45139074832884
C          137.62446917251788        6.74354788261162        2.35257804031445
C          137.60728562479659        5.37909452610065        2.09987786094830
C          139.39545071167018        2.73934398009627        0.57834291988257
C          140.68284646114094        3.38473374606620        0.76624250068861
C          141.61860959253988        2.42999357659197        0.58710001394083
N          139.57012249832425        1.41511667794907        0.31385409831613
C          140.90147672536540        1.20262816976049        0.30241859604367
C          141.55391836876672       -0.02112858310704        0.05095568252858
C          140.92207524887399       -1.25720015782550       -0.18717392254943
C          141.56561276404301       -2.49070671258808       -0.46497848097719
C          140.59729180682919       -3.44450664329636       -0.62091115282579
C          139.33360371636428       -2.82079136863336       -0.43365418587621
N          139.58061052742130       -1.49760557983067       -0.18364863577620
C          138.07160989074467       -3.42350404368295       -0.50524018395845
C          138.05511224533873       -4.88681477668051       -0.75568400928246
C          137.44508241095815       -5.40254351258813       -1.90136512893498
C          137.43197686061464       -6.76962911416479       -2.14068788962171
C          138.02545878254520       -7.63839558854367       -1.24021760564657
C          138.63759248654546       -7.13528769678216       -0.09129559295250
C          139.26394511165509       -8.09797124633880        0.84945323218686
O          139.83313087907615       -7.51466453424195        1.91437007314763
O          139.27555048107507       -9.29186028158252        0.69171431923981
C          138.65220477959008       -5.76271988750353        0.14832335511742
C          136.84785645721450       -2.76843953825880       -0.36186939420519
C          135.56150911926647       -3.44191185226900       -0.38472379612875
C          134.62541050409308       -2.48351100147292       -0.22607091272396
C          135.34158594266350       -1.22991232238454       -0.09620412629299
N          136.67223739160116       -1.43169705549967       -0.17009396242337
H          133.60932698145049        2.65699798127802        0.38613317767019
H          135.49963142558002        4.51961769234993        0.70956099804838
H          137.37955216718805        0.76786660866453        0.24523989184596
H          139.22679872575895        5.36730320416642       -0.88033894874827
H          139.84692350491071        9.80322230011662       -1.08502739745835
H          138.22983337813690        8.68035840250273        1.64619043634680
H          137.17442500336244        7.12758298682183        3.26104995477454
H          137.15461208611902        4.70202713520609        2.81574120701065
H          140.82882650293158        4.42384396645219        1.01257066775308
H          142.69154990142195        2.51916750220720        0.64451880976436
H          142.63296708752438       -2.62191712351545       -0.53949116692006
H          140.74400300765461       -4.48636652499540       -0.85421795300446
H          138.86295371851486       -0.79803161499934       -0.02615792807610
H          136.99196307080302       -4.72291066007196       -2.61430673314370
H          136.95779417092490       -7.15497446415642       -3.03608551325086
H          138.02451693617189       -8.70883796921878       -1.41195138646302
H          140.21675240566447       -8.20705046421727        2.47680371662951
H          139.11500410410210       -5.37632782163322        1.04873377186389
H          135.41633765300580       -4.50455032293619       -0.49265745105001
H          133.55305583123982       -2.58921208131009       -0.18827116821663
