152
 energy: -237.137262406055 gnorm: 0.000948785919 xtb: 6.5.1 (b24c23e)
Cu          15.76513714323528        0.07061752453781        0.03026655667714
C           12.34961314091568        0.13918091853906       -0.03422383313575
C           12.99008698861242        1.26390186217807        0.46515215839764
C           12.32480076386301        2.43793733091560        0.95550567096677
C           13.29106211061867        3.30821948193472        1.34146749509227
C           14.55554789429854        2.67279321591579        1.08915918683631
N           14.34191375560225        1.43248826350217        0.56061717288811
C           15.80107635251715        3.24663886633306        1.34214692678738
C           15.81426428416085        4.62963554314078        1.90243504677520
C           15.75255878758316        5.72958164500529        1.04202814683584
C           15.67584002152547        5.51613525918933       -0.44646202723757
C           15.75896124672055        7.01398857815995        1.57300429644984
C           15.82423914323220        7.21859881864154        2.94743881355765
C           15.84887764423792        8.61470780073790        3.50882482665487
C           15.88644627982173        6.11682739597343        3.79428796014716
C           15.88156225827589        4.82351587266330        3.28489160328179
C           15.94672343002194        3.63572658750169        4.20781864819479
C           17.03231873434123        2.63643954382851        1.10933375594178
C           18.30693510178151        3.24329043202309        1.36827473745659
C           19.25609879521880        2.33760098934002        1.01900768079402
N           17.22473650130943        1.37701810348197        0.60608106969070
C           18.56870891823975        1.17335114527454        0.54438760241761
C           19.20423869423160        0.00408236030619        0.08900461459335
C           18.53952626750037       -1.14156235129257       -0.38468225363382
C           19.19728359326369       -2.33172114735518       -0.83657037953979
C           18.22625227351493       -3.20103358082351       -1.21687215149940
C           16.96803640663202       -2.54433948989860       -1.00352364520200
N           17.19162248370122       -1.29311534454759       -0.49269551369588
C           15.72297153670187       -3.10485087114093       -1.28303607309795
C           15.70091890252635       -4.48736085963218       -1.84413853342790
C           15.82120453027993       -4.68503593637387       -3.22307913799652
C           15.98108937561217       -3.50197737683484       -4.14047031128701
C           15.79247608633734       -5.97708954909015       -3.73265937930864
C           15.64586252993929       -7.07538246604452       -2.88983636588062
C           15.60704936244339       -8.46540167227658       -3.46548615189347
C           15.52763460726477       -6.86723606618260       -1.52067155679428
C           15.55364982567702       -5.58246345000808       -0.98895206185707
C           15.42160214730111       -5.36506679262540        0.49507078250204
C           14.49278136074519       -2.48130891483108       -1.07675936871608
C           13.21426702285066       -3.06506105612685       -1.37849330318934
C           12.26985110647959       -2.15639947351246       -1.02854777506121
C           12.96274126763272       -1.01068777253761       -0.51018397114166
N           14.30926371891373       -1.23360931743441       -0.55441896460580
H           11.26491083658153        0.16115989145846       -0.05520386931230
H           11.25431916325334        2.56561506525644        0.99436496102111
H           13.17150471835944        4.29345570275667        1.76341649811015
H           14.74358962888100        5.01131162334186       -0.70782706751688
H           16.50141191290671        4.88687386697100       -0.78357353346576
H           15.71804806643092        6.46585624444592       -0.97882659831925
H           15.71015866612006        7.86770483606149        0.90489376873327
H           15.41900890183676        8.63870816388745        4.51046476862928
H           16.87957310194766        8.97141700601670        3.57275045237194
H           15.29244582350236        9.30027636581870        2.86914677721073
H           15.93661615410788        6.26702149871767        4.86781888379988
H           16.86572391555762        3.07244639847388        4.03413213467073
H           15.92343204089956        3.95089397632101        5.25054266810029
H           15.10520780378157        2.96529675230603        4.02431138258290
H           18.44675093447484        4.23658108132183        1.76396641756443
H           20.32830626974183        2.43892402463579        1.07401866725641
H           20.26599760568148       -2.47493635657591       -0.85421833789511
H           18.34101894573277       -4.19983504188992       -1.60657356423999
H           15.17472290969429       -2.78425358101226       -3.97967107823382
H           15.97034678599291       -3.81440206224916       -5.18421807951258
H           16.92569799964660       -2.99289586292346       -3.93883897897469
H           15.88476255079194       -6.13179358946529       -4.80277692739759
H           16.46693415047470       -8.63349741886827       -4.11591872781182
H           15.61373856178892       -9.21622394480802       -2.67547862638728
H           14.70274332338693       -8.59966970531220       -4.06269875140878
H           15.41341169042930       -7.71670513748103       -0.85521560667485
H           14.49870882654012       -4.82512316202964        0.71660248818744
H           16.25508273615851       -4.76707803735310        0.86771058144911
H           15.40488178635622       -6.31520181073962        1.02810177499979
H           13.07141522277401       -4.04429814143101       -1.80715048123562
H           11.19739360290441       -2.24059468377259       -1.10902596523988
Cu          29.25075181451465       -0.07121473663454       -0.02749563519565
C           32.66622872734685       -0.07509454348992       -0.12296465249866
C           32.02590169799968       -1.23289641422645       -0.54017564414843
C           32.69137842511671       -2.41968902372933       -0.99853800589151
C           31.72526783571837       -3.31537822603468       -1.32160635045031
C           30.46068251220968       -2.68240200271381       -1.06366429109747
N           30.67412810397401       -1.42117023788263       -0.58711129782219
C           29.21525435413373       -3.27182843721525       -1.27845994870623
C           29.20233594211697       -4.65773972824982       -1.83151590143719
C           29.26368438994726       -4.85571856347362       -3.21392052608132
C           29.33958082807658       -3.67111178823961       -4.14020073464258
C           29.25769620306713       -6.15011649648152       -3.72004434301715
C           29.19320207203280       -7.24936981079288       -2.86994660998785
C           29.16905282155440       -8.64542982926990       -3.43148451242052
C           29.13132514632089       -7.04070001839589       -1.49606739070074
C           29.13578583120641       -5.75480480292776       -0.96820548698689
C           29.07098470034261       -5.53679591125151        0.52013448388658
C           27.98393515304561       -2.67014773332870       -1.02477198430075
C           26.70932528963309       -3.28707562052331       -1.25876507915456
C           25.76013785399471       -2.39137158646795       -0.88466637370965
N           27.79146121916304       -1.41288337140355       -0.51615377600848
C           26.44750288373381       -1.22300574186327       -0.42024287450223
C           25.81164664018410       -0.06412531314559        0.06065357979193
C           26.47603360488516        1.09058547136217        0.51230896578901
C           25.81827092646085        2.26236748973776        1.00987215463790
C           26.78931818134159        3.15274783617721        1.33779268701696
C           28.04757285949656        2.53097016168410        1.03764747711302
N           27.82399808695643        1.27468532040756        0.53948032737208
C           29.29259290068070        3.12899099774542        1.22423480447508
C           29.31459109099675        4.51500151452596        1.77663983840159
C           29.19547977675854        5.61252550642203        0.91854445380686
C           29.03646318379613        5.39431710862209       -0.56263331227943
C           29.22452370456535        6.89755713141490        1.44557840545010
C           29.37031151063599        7.10625623129821        2.81426191742695
C           29.40966483848650        8.50770468219826        3.36146178159299
C           29.48727570058377        6.00794551814246        3.65804010026750
C           29.46093172868996        4.71284642716048        3.15202027088240
C           29.59177906137162        3.52831816871598        4.07221730089140
C           30.52283683478714        2.53665369975138        0.94080277122028
C           31.80123005133163        3.16733239268977        1.12615817082077
C           32.74573270831205        2.26975072649264        0.74893375097277
C           32.05299310018805        1.08402066952390        0.32985935688287
N           30.70648636750268        1.27496293775950        0.45325923927898
H           33.75091059761991       -0.07611487346109       -0.15397754825080
H           33.76187264538702       -2.53837611928375       -1.05932968903815
H           31.84494407186062       -4.31862587786806       -1.69869538164995
H           30.27145333656850       -3.12525083271572       -3.97926457147684
H           28.51353073484185       -2.98422718155306       -3.94780212997769
H           29.29759859235298       -3.98785965792525       -5.18186650939383
H           29.30617998985553       -6.30353226072004       -4.79321613781111
H           29.59924349106910       -9.35608618778941       -2.72540540070522
H           28.13845631603568       -8.94746039041073       -3.63226618732623
H           29.72543526806159       -8.69700244512772       -4.36774852465862
H           29.08182880229621       -7.89236015838333       -0.82540934446400
H           28.15188040712460       -5.01041840799203        0.78504774431438
H           29.09473439718164       -6.48614876375626        1.05428319768924
H           29.91238742677336       -4.92572680431595        0.85169954699471
H           26.56953656920028       -4.27776619226047       -1.66095078622508
H           24.68790777368233       -2.50216191652562       -0.91593944196076
H           24.74956230517448        2.37811537727018        1.09595669348832
H           26.67456504723169        4.14322959981358        1.74816088936116
H           29.84309556202669        4.76521985229655       -0.94314776995147
H           29.04748667542527        6.34248625051424       -1.09928470004431
H           28.09201354262457        4.88735731726281       -0.77026037638594
H           29.13310028361093        7.75020787411676        0.78058688851655
H           28.55021950396471        9.07983111838696        3.00826944472482
H           29.40257415554681        8.50238093149984        4.45133043278858
H           30.31437153957338        9.01761872812912        3.02388870893037
H           29.60089641605459        6.15996035043383        4.72641957409912
H           30.51436199951255        2.98469007121951        3.85853829580943
H           28.75784695336746        2.83946087355548        3.92668311226551
H           29.60830196242006        3.84474172124173        5.11469506547533
H           31.94398999983488        4.17066742057599        1.49493092702557
H           33.81814688278139        2.38663987005642        0.74844338360999
C           21.83289551696935       -0.03079933029899        0.10328619262652
C           20.61078602702718       -0.01848420652000        0.10115994372437
C           23.18348985987945       -0.04400282650091        0.09682295410586
C           24.40517065138416       -0.05667998950086        0.08425637103290
