189
 energy: -343.599017042491 gnorm: 0.000677084362 xtb: 6.5.1 (b24c23e)
Co          26.07894549710754       -0.01923195070057       -0.09647910770266
C           22.71351145778972       -0.06913000895889       -0.33246598803152
C           23.39729733404346       -1.25846819229401       -0.46063849528313
C           22.75603969412339       -2.52090190944075       -0.66917634373948
C           23.70669574484933       -3.47027638069085       -0.50555380992151
C           24.93333122323599       -2.78608127508387       -0.21795879109176
N           24.74031959457362       -1.42806440034506       -0.23194797871476
C           26.10870886584719       -3.42086233402038        0.16072961963918
C           26.11894793645946       -4.89776994125444        0.30060220537530
C           25.93063014036942       -5.71775098637403       -0.81144610276978
C           25.94355982773788       -7.09824005227460       -0.68221465171332
C           26.14101591277537       -7.67317522718455        0.57093428192618
O           26.15820127450457       -9.02026973709184        0.74293239383613
C           26.32894975128638       -6.86395364813722        1.68988848553145
C           26.32072552581577       -5.48729790495257        1.55020805187318
C           27.28029642096344       -2.71734618876479        0.39235330498570
C           28.53263890348900       -3.33898710340206        0.70336478473322
C           29.48073211546240       -2.37599052861187        0.61482057342198
N           27.45737844857665       -1.37010690721366        0.16700517301591
C           28.80586169649401       -1.16838055879941        0.25869291607896
C           29.47116371082325        0.01994614958304       -0.05179245711502
C           28.78118821661779        1.20394968853077       -0.32029573452741
C           29.42990172875754        2.44032465732887       -0.62153596090283
C           28.46691273695360        3.39343719787129       -0.62276915875174
C           27.23209973046767        2.73430122737357       -0.32227626566230
N           27.43090934053719        1.37882400497492       -0.19418066945996
C           26.02915511664278        3.39405222890460       -0.11615166391099
C           26.01324123758022        4.87470492361848       -0.11839481437996
C           26.78684099684361        5.59430096696939        0.79593426172177
C           26.77524721935229        6.97765347589923        0.79999051325015
C           25.99031569570517        7.66520600869688       -0.12400638210162
O           26.00518451617209        9.02257099220797       -0.09500486470227
C           25.21873065037486        6.96143654935586       -1.04587794008976
C           25.23063085200721        5.57544532992075       -1.03699644461233
C           24.83869984639639        2.70213873258728        0.06133343974024
C           23.56645381139620        3.32944349731880        0.27011155822054
C           22.62975427158453        2.35656664930729        0.17457930604583
C           23.33206274882924        1.13298595094861       -0.06381667248546
N           24.68757245147861        1.34465710861358       -0.07287719574251
H           21.63327776128897       -0.08467125872570       -0.41708338205392
H           21.70645416144453       -2.64461842384192       -0.88401268860176
H           23.59629099815086       -4.54135938067001       -0.55534814853348
H           25.78998239624389       -5.27124700517384       -1.78948436581901
H           25.80276278496163       -7.73225749574482       -1.55105002648457
H           26.01804553796713       -9.48402175033054       -0.09347141581482
H           26.47890270794083       -7.32502081226545        2.65827227537182
H           26.45712761640817       -4.85690928629450        2.42172283532845
H           28.66162056770186       -4.38481170648797        0.92965202832294
H           30.54529472616570       -2.46092747339792        0.76263497338598
H           30.48825089305649        2.54950860947747       -0.79559681980769
H           28.57139059158338        4.44898411853773       -0.81415064331233
H           27.38893278150460        5.05958722680344        1.52198768958229
H           27.36781534677815        7.53787938439996        1.51263386974787
H           25.42716371225395        9.39610987683850       -0.77376782366296
H           24.61428971849195        7.50061799504995       -1.76741348475221
H           24.64117900554608        5.02945389299622       -1.76518303359808
H           23.42208182206562        4.38076638074632        0.45951055683537
H           21.55769112026593        2.43932148532469        0.25780982958301
Co          63.10941441370804       -0.01155670117771       -0.06107311652338
C           66.47208765944329        0.01915034451999       -0.30276030840910
C           65.78200791878109        1.17143390120246       -0.61202312465208
C           66.41292469139246        2.39063217105234       -1.01691397629901
C           65.45603851219290        3.34794494896172       -0.99574823940710
C           64.23698526472283        2.70916247650469       -0.59402635555952
N           64.43908149277307        1.36632045041168       -0.40431863935412
C           63.06507342200162        3.38894802320001       -0.28587826565196
C           63.04853302316568        4.86994546903872       -0.36561113058935
C           63.20267040690829        5.51505155695745       -1.59231034179403
C           63.18267086052818        6.89920218142522       -1.67052099312637
C           63.01365638917554        7.65438895146443       -0.51240458226952
O           62.99127148371426        9.01170277093892       -0.54281495276616
C           62.86106405360638        7.02084588475183        0.71956771616316
C           62.87512302661646        5.63883606539780        0.78699777004640
C           61.90539843946969        2.72308520237479        0.07885701619949
C           60.65841028207411        3.37645881404012        0.34317490393872
C           59.71493289877115        2.40693873447047        0.41176510150213
N           61.73044403491564        1.35723068672832        0.04011575705387
C           60.38723579698755        1.16546511741180        0.19381926805818
C           59.72058912719795       -0.05266118011142        0.02847521083467
C           60.41285725053225       -1.25768202119210       -0.12218815831104
C           59.76860412784925       -2.52196007140740       -0.28478849815895
C           60.73523925176308       -3.46602781569089       -0.17995595167099
C           61.96709160387297       -2.77310073355723        0.04827628291023
N           61.76302276038444       -1.41254462071376        0.02008121976410
C           63.16999388289180       -3.39707244758655        0.34620380268780
C           63.19103957049192       -4.86557209030184        0.52948731423716
C           62.39766189371802       -5.46958543285905        1.50859302697235
C           62.41409300167686       -6.84112608545529        1.68732758985573
C           63.22357355441322       -7.63455371464151        0.87604416083949
O           63.21250701914163       -8.97715679065887        1.07561016890737
C           64.01501406685793       -7.04733140284331       -0.10859342885508
C           63.99856978965101       -5.67139241416605       -0.27442053942127
C           64.35608734571514       -2.68135978002950        0.45232804294360
C           65.62761278873749       -3.26718120523989        0.76143282902460
C           66.56177089116009       -2.31005684931869        0.54890462227124
C           65.85801905990773       -1.13469345613540        0.13604268699461
N           64.50370113253128       -1.35378799754064        0.14003224443467
H           67.55258781468285        0.02822350031432       -0.38521918126549
H           67.46016730409944        2.48655034405604       -1.25593194153842
H           65.55817869137347        4.39915606765912       -1.21121722174763
H           63.32150886747639        4.92760219617032       -2.49590265331918
H           63.29600235414451        7.39659231988241       -2.62781558875954
H           63.10433379606375        9.34642595260461       -1.44253549632075
H           62.73349459404341        7.62110395001592        1.61188687962563
H           62.76652313760903        5.14542908627315        1.74629981688515
H           60.52853806145327        4.44257392490376        0.43357300371416
H           58.65460166543183        2.50744956060591        0.57878780886252
H           58.71075055029959       -2.65377922349000       -0.44576803532510
H           60.63453475973230       -4.53657897563498       -0.25361206113366
H           61.77686766910168       -4.85157563353727        2.14754693142498
H           61.80660483418433       -7.31102013914338        2.45085675393192
H           63.80763179904259       -9.43010807853170        0.46317668064779
H           64.63843016074411       -7.66914621599205       -0.74212385014575
H           64.60357636458343       -5.21770974836886       -1.05155651723958
H           65.77355776873428       -4.28238962504608        1.09318952775437
H           67.63282569780934       -2.37471899004511        0.65719882476428
C           30.87455981758136        0.02993070269535       -0.06755589643195
C           32.09920460656151        0.03341448384009       -0.07998252456038
C           33.44156130485692        0.03969185296691       -0.08946752139487
C           34.67267160216323        0.04303820925220       -0.09017670154117
C           36.01004278896831        0.04370661509134       -0.09088865388467
C           37.24136069784335        0.04014926525001       -0.08928485781310
C           38.58312708769228        0.03648995901829       -0.08482964661436
C           39.80843179913535        0.03618529132874       -0.08332034283047
C           49.38747295589985       -0.06061523572741       -0.00757091392059
C           50.61350647986907       -0.07155874232614        0.00027686314620
C           51.95352047012839       -0.07937395559581        0.00684239230864
C           53.18586828871215       -0.08346875987443        0.01047731162937
C           54.52133755478958       -0.08417889603620        0.01616467821347
C           55.75349100634612       -0.08019614741777        0.02377326063737
C           57.09391631364950       -0.07319078408067        0.02739039328531
C           58.31964088669479       -0.06681995329635        0.02972151069917
Co          44.59971739488132        0.01791621361888       -0.08919646890590
C           41.20977546664940        0.02909683243583       -0.07896563180878
C           41.89572249511145        0.87749955345789        0.79589215057364
C           41.25381848010134        1.74035177824954        1.73519008716103
C           42.21468593233745        2.56039116483550        2.22844173756802
C           43.43796933779635        2.20100013940503        1.57784741905388
N           43.24122186913853        1.11464884326979        0.75803394577215
C           44.61643077639319        2.93330178145053        1.65608887385266
C           44.62267377428723        4.21109976837990        2.40028511208205
C           45.51892012758818        4.41649117974892        3.45318198620045
C           45.52693632818455        5.60834766727683        4.15462875757258
C           44.63813217857981        6.62353909736041        3.80395247949709
O           44.67702416667593        7.78162012969238        4.50972132412029
C           43.74188823084994        6.43511350985467        2.75396801207914
C           43.73449904907935        5.23391048903030        2.06302985160806
C           45.78939506950100        2.49556315204805        1.05430290473198
C           47.02043728079200        3.22569844414257        1.04455980560541
C           47.97240333038148        2.38111092320992        0.57532003245163
N           45.97465732498704        1.24148746772650        0.52092671286946
C           47.31681834466501        1.14577030083223        0.28823668083763
C           47.98819368295054       -0.04310374796817       -0.01991237154715
C           47.29209876314669       -1.21220352129877       -0.34723580080748
C           47.92272866178504       -2.46160598343904       -0.62994984308870
C           46.96202858248979       -3.27598538845033       -1.13291107631658
C           45.75092099742594       -2.51380593554796       -1.16631393988731
N           45.95243193350457       -1.27352312902606       -0.60608237908754
C           44.58459578246887       -2.91449835565499       -1.80523755725584
C           44.58101130743935       -4.17901400913749       -2.57164587497332
C           43.65861196373944       -5.18500461649342       -2.27869004304727
C           43.65394025433694       -6.37211537284914       -2.99353336235644
C           44.57308238073372       -6.56309608684981       -4.02304661588549
O           44.60073863764643       -7.70725079649078       -4.75175294665379
C           45.49723756244558       -5.56510771559364       -4.32863825520634
C           45.50048676173226       -4.38736061078709       -3.60366761629200
C           43.42050163105989       -2.15792040746425       -1.74168368557273
C           42.20101366314316       -2.48302720904592       -2.41640675549287
C           41.24628903669135       -1.65854217113699       -1.91750938438857
C           41.88996248538515       -0.82367002922144       -0.95499416074497
N           43.22873548372144       -1.08858642228500       -0.89887231029782
H           40.20164069353677        1.71671003886085        1.96904728810826
H           42.11331837526417        3.34094435045323        2.96476931322589
H           46.20029570384995        3.62197011752151        3.73611499658738
H           46.21406880463631        5.76671799268821        4.97647509019622
H           44.01951059697559        8.41364173533247        4.18977862322124
H           43.05556030749350        7.22956822024975        2.48103650024159
H           43.04652625884952        5.09475641447245        1.23649850839065
H           47.13291699676515        4.25070224078637        1.35838551264197
H           49.02643940683747        2.56174255044703        0.43850464640356
H           48.96808640644993       -2.67035885327614       -0.46880011145613
H           47.05619130168089       -4.29978720449829       -1.45629586103165
H           42.95251834683462       -5.04437928902933       -1.46792253000400
H           42.94031724218033       -7.15343530666803       -2.75521819906787
H           43.91964213475599       -8.32865381166532       -4.46111892816575
H           46.20253928721972       -5.72536963325671       -5.13465544867181
H           46.20971940063425       -3.60575554077674       -3.85190346422863
H           42.09715912109875       -3.24481723445855       -3.17180062673353
H           40.19802285040914       -1.61265931400208       -2.16531786989873
