484
 energy: -900.862099627173 gnorm: 0.000745242464 xtb: 6.5.1 (b24c23e)
C           88.13651262916494       -0.05207269124210        0.03115364179714
C           88.74522635229138       -1.28933569388832       -0.13430391733660
C           88.09378005091988       -2.54785958962223       -0.26547558569143
C           89.05567569227736       -3.50585208741321       -0.41970546481671
C           90.32591191160235       -2.86163876330712       -0.39763630287572
N           90.08806109289677       -1.52959374334562       -0.21332525078163
C           91.58900169922974       -3.45344184376320       -0.51392760729271
C           92.80594715064963       -2.77116846454380       -0.43994713059735
C           94.10129257927836       -3.40161068562972       -0.62279032186422
C           95.02357781691830       -2.42750210763103       -0.48135822843205
N           92.96272000693114       -1.43794915742000       -0.21386674041732
C           94.29048202444363       -1.20302917792390       -0.22321788381874
C           94.92964366465111        0.03595661042879       -0.01374549088872
C           94.29476330237472        1.27434121273066        0.19905839340053
C           94.94000135089053        2.51701124488303        0.43620728428622
C           93.97366085696964        3.47290778938843        0.58362768402320
C           92.70700477189882        2.84324950244239        0.43148529661587
C           91.44471474392026        3.44032025487425        0.51838116924149
C           91.41197361190591        4.90451487110973        0.74258091858960
C           91.99320043493294        5.77718617088290       -0.18159585727961
C           91.95551919527736        7.14323933855035        0.02847679264383
C           91.34107308106211        7.66324804640521        1.16928742144687
C           91.32753746698376        9.13440597580843        1.35082255134501
O           90.71075532754428        9.53118666340465        2.47430553187734
O           91.81622490033597        9.91962324462812        0.57866036526655
C           90.76239727451289        6.79645476756545        2.09699254227775
C           90.79679397420341        5.42994013162942        1.88213780658016
C           90.22650793750424        2.76028361828313        0.41030444065855
C           88.92281468047071        3.40553640371875        0.44530757938414
C           88.00767825877269        2.42496863651064        0.31073900679803
C           88.75091429325327        1.18380501669826        0.18205091277372
N           90.08398220286860        1.42547281615003        0.23680218379445
N           92.95309237636313        1.51416062274057        0.20963129841812
C           91.61671229209598       -4.91903234974841       -0.73485885489844
C           91.01914297700071       -5.47347238729490       -1.86978011239358
C           91.04081029189621       -6.84115477435996       -2.07986046699298
C           91.65772855729821       -7.67960859979056       -1.15091157702515
C           91.70332331960499       -9.15085970007455       -1.32704041289665
O           91.10490393887024       -9.57587276451948       -2.45025459075867
O           92.22054782337334       -9.91335546261019       -0.55084873125490
C           92.25435983696457       -7.13031527802494       -0.01433703313796
C           92.23632142092674       -5.76310069577087        0.19066882923737
H           87.05126959299385       -0.06161089797313        0.04056220210687
H           87.02513111634239       -2.68897011419594       -0.23742876324283
H           88.90480269461709       -4.56742975492513       -0.53003064017854
H           90.81287653707312       -0.82334414034971       -0.14211169267885
H           94.26090703653958       -4.44453006084183       -0.84338339738197
H           96.09701141811436       -2.50215831092923       -0.54930817304628
H           96.00819985853855        2.65125933999838        0.49145921769792
H           94.12190689679286        4.52022670866412        0.79012422613720
H           92.45738062826663        5.37724732997442       -1.07598625040752
H           92.39862208426221        7.82598735994736       -0.68821784693488
H           90.74490837428631       10.50058767861855        2.51778241712802
H           90.28797089080477        7.19522317021215        2.98584128393725
H           90.35879035582862        4.75613414488223        2.60979775006360
H           88.75571654418083        4.46593701892445        0.54471929154726
H           86.93206309940938        2.50317085679516        0.28784804484428
H           92.23061732779659        0.81332369765767        0.08117050936008
H           90.55144247038723       -4.82145860098801       -2.59899537019094
H           90.58044495258777       -7.26241063183908       -2.96573975896938
H           91.17919474200527      -10.54316017243092       -2.49081941066682
H           92.72835552979082       -7.79149363360983        0.70278736827369
H           92.68863396851197       -5.33984010978620        1.08024558642224
C          206.56978719836297        0.07746930537752        0.03796243518780
C          205.95993258302190        1.25948120528534        0.43751131525652
C          206.61015203497337        2.44799947999290        0.87354534313553
C          205.64713147234619        3.37347230968408        1.16138843549468
C          204.37738148961961        2.78330898066012        0.89969494673960
N          204.61669890855043        1.50710775426304        0.47665477454847
C          203.11343199229290        3.36380398754232        1.05624346944605
C          201.89751318177255        2.71713706904463        0.82056351347799
C          200.60178186499169        3.36409790623111        0.92686294680509
C          199.68042728371091        2.42527819133555        0.62811830036733
N          201.74203911365601        1.41849016302609        0.44335632575704
C          200.41446040063778        1.21019153906924        0.33135832571414
C          199.77621921718449       -0.00026162755148       -0.00771298431339
C          200.41244055510251       -1.20934534009334       -0.34712428548024
C          199.76921501491231       -2.43538098424388       -0.66309189378425
C          200.73673620038269       -3.35762638482585       -0.95080788284508
C          202.00202191879106       -2.71887262982042       -0.82797037571216
C          203.26493143601044       -3.28900701591796       -1.02169344632459
C          203.29972408908628       -4.70483389102720       -1.45684749574951
C          202.70714271902159       -5.09153450886897       -2.66217750920194
C          202.74760321863130       -6.41263007447438       -3.06803509937046
C          203.37621583807979       -7.37390330762039       -2.27418719968911
C          203.39243526441018       -8.77730805950185       -2.75136763888912
O          204.02386683430831       -9.61989486216594       -1.91991494354772
O          202.89392048910838       -9.15091333453151       -3.78264376711051
C          203.96610519800478       -6.99409890512886       -1.06811473115944
C          203.92889554328701       -5.67048606567573       -0.66640667468535
C          204.48222750705747       -2.62431466775419       -0.83569941136050
C          205.78589361121672       -3.21469686902165       -1.09871057726296
C          206.70013182630328       -2.27043421600452       -0.79936097245889
C          205.95627809677873       -1.10099989075272       -0.36512923721234
N          204.62366643709672       -1.34723185064138       -0.41004144318634
N          201.75415282696821       -1.42533562078055       -0.45180697712614
C          203.08233047053082        4.77533372613819        1.50772283786044
C          203.68154905340887        5.77753520355366        0.74027226272736
C          203.65641610842147        7.09587429207544        1.16054475292430
C          203.03413731937502        7.43279452038035        2.36295461322649
C          202.98457912288399        8.82866363618444        2.85972748369299
O          203.58654923051989        9.70970417793668        2.04634889715889
O          202.46136546375209        9.16545135416558        3.89136474182870
C          202.43543688407300        6.43451056500879        3.13399082912206
C          202.45708212795040        5.11892809477375        2.70947978955387
H          207.65506478679478        0.08499559421634        0.04424416668308
H          207.67880212108230        2.56446552989370        0.95796486904236
H          205.79706881277400        4.37482595516537        1.53108878123146
H          203.89260826416452        0.84031673776606        0.23109475124271
H          200.44140133982953        4.39928137132601        1.18083328471712
H          198.60706990900488        2.52198045444060        0.59659994296783
H          198.70152426586608       -2.58430332980370       -0.66213430769346
H          200.59030650534592       -4.39215620493474       -1.21503986501431
H          202.23199849681947       -4.34475979137095       -3.28821180027958
H          202.29587238899848       -6.71782715712551       -4.00554964915899
H          203.99075624749148      -10.51175138953684       -2.30240225666143
H          204.45153910941622       -7.73734015618330       -0.44675116435326
H          204.37582937541217       -5.37810202209811        0.27704952568897
H          205.95344705075232       -4.21108047445650       -1.47473586899259
H          207.77542133437234       -2.32651730979289       -0.86409442062094
H          202.47547619539773       -0.73467859091321       -0.27198897069981
H          204.15315617704044        5.51877665313211       -0.20113011227259
H          204.11820968102447        7.86787231543906        0.55644141859842
H          203.50941634413039       10.59390897419689        2.44011181686441
H          201.95708978335429        6.70702018344984        4.06834567843307
H          202.00317287050260        4.34348860227648        3.31591483751028
C           96.33560492444737        0.05091671595256       -0.01470282398403
C           97.56024569654356        0.06257404600868       -0.01234918432176
C           98.90309396336582        0.07008958850458       -0.01015667083861
C          100.13385059555613        0.08220200141282       -0.00890465260488
C          101.47183440466631        0.09015127862947        0.00126191342125
C          102.70270652785747        0.09227755730069        0.00791231462207
C          104.04530178642680        0.09567192520086        0.01457593709040
C          105.27020641429091        0.09683967058593        0.02428900666216
C          114.95179838372529        0.09361951868622        0.07822069047559
C          116.17718143798409        0.08676951888888        0.07784640183317
C          117.51914944116400        0.08065315428459        0.07493342922277
C          118.75058853719941        0.07409512406144        0.07478876215690
C          120.08788164878567        0.06885750916321        0.07318014013501
C          121.31933639010774        0.06241510478440        0.07159215129419
C          122.66130275979529        0.06049985145635        0.06860767133509
C          123.88670807834502        0.05698448513145        0.07010029021972
C          133.57335197340203        0.06852197599064        0.07121361797096
C          134.79882022842014        0.06279816469046        0.06862926232428
C          136.14085289108226        0.05876550000227        0.06334479582788
C          137.37234129215003        0.05434743331242        0.05770909804330
C          138.70970077456411        0.04996178458387        0.05342355294548
C          139.94123932139311        0.04741626531708        0.05115914368471
C          141.28329446030207        0.04711849905505        0.04994853816380
C          142.50876783767515        0.04600028525624        0.05244810872463
C          152.19729038258862        0.08355286336948        0.08475355905900
C          153.42276000734802        0.07885568496714        0.08148973211001
C          154.76479629178741        0.07660354981391        0.07492590153216
C          155.99628543126590        0.07060053018981        0.06971858030725
C          157.33364545909146        0.06513795636857        0.06521811196210
C          158.56515575441693        0.06021621159525        0.06001249579272
C          159.90719813669929        0.05740925873047        0.05541636340528
C          161.13266961170271        0.05354240838808        0.05439555087239
C          170.81905599030907        0.08819494346111        0.09788933147512
C          172.04448820269616        0.08587197864097        0.09883494212193
C          173.38646732138244        0.08282880496777        0.09764009420883
C          174.61793681177161        0.07763122609620        0.09497368692937
C          175.95526469706704        0.07191886718960        0.09269618059404
C          177.18667820810745        0.06514793451050        0.08897521828234
C          178.52864514964133        0.05846147976581        0.08363435485777
C          179.75401107668156        0.05013917139089        0.08172400047219
C          189.43560304527631        0.00238578519228        0.05328347396470
C          190.66045027282536       -0.00887606307814        0.04389344854701
C          192.00306515004428       -0.01616111925787        0.03318862537424
C          193.23390207642515       -0.02319903826479        0.02288207834471
C          194.57193279962161       -0.02759393383033        0.01231023729012
C          195.80266697072921       -0.02821743489484        0.00227391729975
C          197.14556313952048       -0.02423139540873       -0.00481476547238
C          198.37021949530833       -0.01469361894361       -0.00865541592559
C          106.67505470182800        0.10114617637641        0.03551552273036
C          107.30677042578142        1.03822689479440       -0.80480267404290
C          106.66392872938121        1.95287029545109       -1.67829423616178
C          107.63293238692157        2.68805615321478       -2.30446886854652
C          108.89641321514127        2.24872543560883       -1.82294336652254
N          108.64865143253037        1.24435397320073       -0.92637240797560
C          110.15876023431763        2.72476887201566       -2.19897529233639
C          111.38340911618707        2.23772719107983       -1.73911540250799
C          112.66871146016614        2.80345866977610       -2.10946108964291
C          113.60632191576082        2.07002084521198       -1.47493811501717
N          111.56105665563732        1.19615783021595       -0.88033021929048
C          112.89235758426354        1.06512713762426       -0.71218428597252
C          113.54765688440692        0.09684903692414        0.07587168927146
C          112.91567380088678       -0.87949726557056        0.87075687313806
C          113.55869174906462       -1.87612523099833        1.64929680521489
C          112.58943605117393       -2.60986551126229        2.27688617332282
C          111.32547803357023       -2.07529676234855        1.90565975465909
C          110.06323106565411       -2.52565233289361        2.31126135713723
C          110.04473130253294       -3.65415427510826        3.27379388923534
C          109.45472482421822       -4.87136397179561        2.92306844589911
C          109.43950538265361       -5.92344652316059        3.82002470283793
C          110.00877106930763       -5.77671812367650        5.08639320651833
C          109.96471814719676       -6.93238254908808        6.01432630931591
O          110.53443237592229       -6.68749055848019        7.20391434768234
O          109.47114842630248       -7.99881924705341        5.74920690706918
C          110.59671881531463       -4.56266877517110        5.44239032169577
C          110.61633946155385       -3.51283734042481        4.54072902837102
C          108.83805860935279       -2.00596771767965        1.88931670647428
C          107.55186793267036       -2.46648023225715        2.38230340712925
C          106.61438856564145       -1.73412677313442        1.74650582026961
C          107.32919058961576       -0.82257977993373        0.87509213509669
N          108.66124852405650       -1.00052764359078        0.98902036693480
N          111.57359510416893       -1.03747370013370        1.04765461784921
C          110.17527224417051        3.84349201297806       -3.17275408383568
C          109.58618895782443        5.06975980790862       -2.85341412714990
C          109.60135562020177        6.10958529213025       -3.76470777535939
C          110.20045460428993        5.94118193616728       -5.01444826047711
C          110.18596846451386        7.08360873893316       -5.95949154287775
O          110.78823997241263        6.82052820171807       -7.12887710498327
O          109.68695339993623        8.15450859688323       -5.72385903746332
C          110.78872843893247        4.71835056791311       -5.33869871472834
C          110.77719546401914        3.68076087590023       -4.42305370936936
H          105.59657896923851        2.02801221568149       -1.80925595915418
H          107.48704143085894        3.46017217267325       -3.04199476742077
H          109.36563875420127        0.72520614079678       -0.43073682924309
H          112.81170062831849        3.65462042042650       -2.75512610697460
H          114.67842746639825        2.18210041439285       -1.49750070987341
H          114.62639952844458       -2.01106241123439        1.71124100263927
H          112.73519580373032       -3.45320121471084        2.93186492118784
H          109.02211421713123       -4.99034540908296        1.93627539320279
H          108.98802566995613       -6.87252127872321        3.55262642834062
H          110.46365759280232       -7.48772808844735        7.74932406770971
H          111.03599852571779       -4.44292321126990        6.42566820581867
H          111.06173612683041       -2.56535454761746        4.82260577916331
H          107.40797908200111       -3.23531021858977        3.12387561993980
H          105.54176353255363       -1.78061645532741        1.84527163487641
H          110.85646636893846       -0.47374934983579        0.60357851774035
H          109.13166419110752        5.20707744471293       -1.87880063305398
H          109.15093687770862        7.06562334989556       -3.52133706534032
H          110.73605688139850        7.61333081396746       -7.68707771952948
H          111.25228822059051        4.58231555617005       -6.30860220810429
H          111.22326593260870        2.72652543787290       -4.67949449823029
C          125.29077192672466        0.05935950062909        0.07017950123893
C          125.91771988725975        0.98743660188468       -0.78441674600428
C          125.27015350111330        1.89224467843101       -1.66433603999423
C          126.23563172801514        2.62457110588283       -2.29949259895647
C          127.50148871118054        2.19336596808989       -1.81708088648205
N          127.25867169173993        1.19545507249683       -0.91179105050997
C          128.76114850307158        2.67243886742489       -2.19852655700881
C          129.98941095136198        2.19359231722995       -1.73956943882313
C          131.27096417915737        2.76336237479734       -2.11674069251558
C          132.21408058524290        2.03631677778835       -1.48296742411878
N          130.17469848597497        1.15654775247166       -0.87690472432359
C          131.50725348344261        1.03167701433436       -0.71346369321816
C          132.16922044659833        0.06876986827425        0.07563631851158
C          131.54248638888194       -0.90489045364009        0.87820981456636
C          132.19016247650785       -1.89719354437491        1.65819249844759
C          131.22458507477000       -2.62785812961523        2.29517377724611
C          129.95843751250115       -2.09555915614904        1.92842033221250
C          128.69867206931468       -2.54367084695968        2.34479028188602
C          128.68753413238497       -3.66575482224411        3.31503205255368
C          128.09672049077753       -4.88588367308176        2.97604756523707
C          128.08841951435627       -5.93206440436486        3.87996897348925
C          128.66561621874160       -5.77639967873832        5.14167020681701
C          128.62845049139551       -6.92591124989956        6.07753431572012
O          129.20729019534821       -6.67332346955363        7.26105112248823
O          128.13247633821567       -7.99388293908761        5.82324714997624
C          129.25454236037984       -4.55943665079779        5.48590088062185
C          129.26715451485049       -3.51550415545355        4.57728310450885
C          127.47020761362205       -2.02813798496617        1.92789063233941
C          126.18828708877832       -2.48528381294488        2.43487609733937
C          125.24518014855029       -1.75871561570776        1.80061540721142
C          125.95234720652506       -0.85462643198831        0.91546762484873
N          127.28515330081002       -1.03024888339683        1.02037810128761
N          130.20139286641839       -1.06250058889495        1.06328817979614
C          128.77033219413050        3.78711177811714       -3.17707549694367
C          128.17590614428636        5.01170574116280       -2.86114099501497
C          128.18503047514773        6.04849933750104       -3.77594054490665
C          128.78340434742935        5.87869296461313       -5.02582994957394
C          128.76289947101679        7.01812129799630       -5.97442838243348
O          129.36559607627461        6.75424059028021       -7.14336978324013
O          128.25907851222652        8.08738608012333       -5.74166598670356
C          129.37675527391815        4.65745704659011       -5.34680229382356
C          129.37113453109282        3.62285389266798       -4.42770624466422
H          124.20228934517817        1.96331158861575       -1.79331979270785
H          126.08566547919887        3.38964701622462       -3.04350525753216
H          127.97794817808294        0.68287268706472       -0.41265571656852
H          131.40808711986236        3.61263034672186       -2.76615135045580
H          133.28562069797272        2.15278768133212       -1.50994806145443
H          133.25823178995614       -2.03157635631360        1.71480841267291
H          131.37435855808138       -3.46776165767394        2.95364067960985
H          127.65794616661168       -5.01175855916065        1.99283693551162
H          127.63635291474311       -6.88338242426808        3.62168949872134
H          129.14074766963193       -7.46995089294480        7.81225323981467
H          129.70002892430787       -4.43279153571639        6.46551509257844
H          129.71337728155683       -2.56574228574767        4.85003114316094
H          126.05089325969278       -3.24786927863312        3.18410008250524
H          124.17338975273539       -1.80506400174759        1.90825422198854
H          129.48197216800972       -0.50115688612063        0.61991570973885
H          127.72209454296525        5.15022577746091       -1.88636339810313
H          127.73052102804905        7.00325872541849       -3.53517073093071
H          129.30964147983275        7.54513650555810       -7.70391292362118
H          129.83965953671756        4.52030026619834       -6.31685908242763
H          129.82118003160690        2.66980520260323       -4.68158809421513
C          143.91288694088109        0.05150828999222        0.05568290979432
C          144.54044722356929        0.97998939330356       -0.79812587472830
C          143.89390933274998        1.88128267641924       -1.68240911830904
C          144.85986268447027        2.61540400935803       -2.31478321610048
C          146.12500672359982        2.18913357457291       -1.82608617832800
N          145.88131876518938        1.19182685476522       -0.92028345404873
C          147.38465465717786        2.67264522329229       -2.20193174516432
C          148.61278548470364        2.19930671548793       -1.73669083121316
C          149.89366055186804        2.77470650399204       -2.10769136034141
C          150.83699176830621        2.05102565420909       -1.47037816938308
N          148.79853343041785        1.16277041574631       -0.87360984845571
C          150.13093063621722        1.04303319544813       -0.70466902677578
C          150.79316687047728        0.08165046058128        0.08603615499008
C          150.16619452435179       -0.89353242253162        0.88647610105108
C          150.81360998966952       -1.88364750895275        1.66937278788287
C          149.84756681230814       -2.61659652484216        2.30299930136933
C          148.58137974422709       -2.08801046126323        1.93098280660422
C          147.32139640182419       -2.53943692844267        2.34326734442317
C          147.31078490648420       -3.66100118258689        3.31417844678200
C          146.72669329197021       -4.88388597238901        2.97359686504994
C          146.71995178393658       -5.92972674988204        3.87794860473868
C          147.29190549934347       -5.77090527836390        5.14163587271138
C          147.25704231635396       -6.92029009506715        6.07775655544227
O          147.83045426817046       -6.66444931348284        7.26320917415783
O          146.76724336023744       -7.99076842949670        5.82206649393988
C          147.87384834304609       -4.55106179609331        5.48755092361739
C          147.88498225641266       -3.50749134116871        4.57851820326503
C          146.09277100648217       -2.02791574663851        1.92215795178604
C          144.81060669984370       -2.48917554013169        2.42478882869016
C          143.86729807910407       -1.76591278419408        1.78706103677361
C          144.57449254452101       -0.85982255990150        0.90395173177908
N          145.90748535639796       -1.03105759881299        1.01346703149475
N          148.82480884218290       -1.05468034522796        1.06641599700798
C          147.39475612887463        3.78654200667084       -3.18134636002003
C          146.79358611329670        5.00899551243038       -2.86993543359522
C          146.80498947598420        6.04546959743143       -3.78507718575866
C          147.41260027364245        5.87753258352276       -5.03075237202241
C          147.39493331332798        7.01681253395722       -5.97960633378720
O          148.00818884271897        6.75542250140741       -7.14358687949467
O          146.88471902511213        8.08393426731837       -5.75098747939381
C          148.01246618894518        4.65833972112408       -5.34734070232332
C          148.00436956699869        3.62401577524860       -4.42796000396571
H          142.82639309835332        1.94881845218462       -1.81609355421897
H          144.71074710628642        3.37859118012666       -3.06090820930590
H          146.59994038580302        0.68222482113813       -0.41717074692701
H          150.03022407145295        3.62518893830010       -2.75561843845436
H          151.90814204780557        2.17202220397076       -1.49239128728924
H          151.88182947139597       -2.01491040910379        1.73034995502439
H          149.99714918487396       -3.45556968180908        2.96268999727062
H          146.29211105940422       -5.01219226418799        1.98883834974591
H          146.27330499747484       -6.88325914388093        3.61840497801793
H          147.76598979439268       -7.46120907455106        7.81446562265072
H          148.31521573169181       -4.42196408487970        6.46870691506895
H          148.32594461717136       -2.55559560519685        4.85238154028043
H          144.67318834645482       -3.25221981254395        3.17354281905909
H          142.79529910529595       -1.81590042002273        1.89092592503011
H          148.10569496802677       -0.49537995917489        0.61998114383175
H          146.33294245634232        5.14626292683048       -1.89819167474487
H          146.34540355038155        6.99864596963395       -3.54770127175004
H          147.95354621102476        7.54605909537456       -7.70462755479454
H          148.48250683859013        4.52259872398211       -6.31416098917753
H          148.45968647777039        2.67257081994234       -4.67844273807464
C          162.53680903702573        0.05573712792336        0.05589407023272
C          163.16532906539831        0.98131516950126       -0.80035787769584
C          162.51959785588443        1.88012949994856       -1.68779077252714
C          163.48620210582621        2.61072481220623       -2.32323298256765
C          164.75095747877708        2.18526757465175       -1.83283481847034
N          164.50636425188327        1.19142136737743       -0.92340757192343
C          166.01114387435237        2.66701040838521       -2.20895881171790
C          167.23830890094882        2.19591260335917       -1.73872761575645
C          168.51976054537772        2.77183235484684       -2.10688009414611
C          169.46169381939762        2.05125253930803       -1.46401764611823
N          167.42219373294014        1.16193197989152       -0.87230059309550
C          168.75417176100478        1.04406190047736       -0.69862972304697
C          169.41499688422078        0.08383150006788        0.09446874037705
C          168.78727720680575       -0.89365576996470        0.89147474670188
C          169.43409179055314       -1.88576315864118        1.67232110989203
C          168.46748920618933       -2.62190670838953        2.30139692164040
C          167.20160102818085       -2.09284943229251        1.92911136184206
C          165.94102401487905       -2.54520991482933        2.33863875021362
C          165.92892808024709       -3.67083243923369        3.30474300762410
C          165.34296785748660       -4.89128190063574        2.95861485333970
C          165.33598511829061       -5.94172151358093        3.85760411484341
C          165.90954578162993       -5.79004738306573        5.12144429596525
C          165.87508235652879       -6.94443448071415        6.05139544519256
O          166.45088269471984       -6.69565718062282        7.23719503620592
O          165.38375985498359       -8.01302197306892        5.79074507818344
C          166.49288790724503       -4.57251535210095        5.47310430969878
C          166.50421105299679       -3.52430113411266        4.56942831517411
C          164.71330293294676       -2.03062216019151        1.91869520893845
C          163.43042008397663       -2.49023854110657        2.42094196428163
C          162.48838573837833       -1.76317297694739        1.78566495313323
C          163.19706715861028       -0.85708776040473        0.90366638335098
N          164.52971180458832       -1.03137889033977        1.01223512995475
N          167.44572394196317       -1.05649442068946        1.06842301099408
C          166.02393271812554        3.77595748709954       -3.19382798450272
C          165.42102902600516        4.99982371051078       -2.89149215923694
C          165.43577465054949        6.03132924835860       -3.81220904157373
C          166.04863278916659        5.85699071790692       -5.05442774689838
C          166.03462982973087        6.99113854041691       -6.00945879093029
O          166.65309242062315        6.72372543170518       -7.16932024366672
O          165.52310019138261        8.05930802223132       -5.78880081356051
C          166.65034327639586        4.63637830827196       -5.36194870432246
C          166.63878471888782        3.60704467281416       -4.43706660870966
H          161.45213913220411        1.94817458426312       -1.82168353426908
H          163.33773473044209        3.37110614271916       -3.07234494073991
H          165.22464891336585        0.68292937704411       -0.41868299217668
H          168.65759277482357        3.62079684658552       -2.75652451181438
H          170.53276227139909        2.17355644860642       -1.48251113713749
H          170.50230250632026       -2.01640363806954        1.73475702857666
H          168.61662788546121       -3.46321086142811        2.95820574530175
H          164.90733972042119       -5.01409878341159        1.97361752500754
H          164.88811596255943       -6.89345551239459        3.59360730944650
H          166.38667394735873       -7.49538983883956        7.78416000901684
H          166.93533787063521       -4.44890369259309        6.45448025948678
H          166.94633603536280       -2.57426090066852        4.84781752672254
H          163.29185135453912       -3.25464768236760        3.16809836782549
H          161.41634840657841       -1.81094963675727        1.89014458115487
H          166.72684362583414       -0.49654895354322        0.62241775444324
H          164.95658141254361        5.14232062421909       -1.92231694335369
H          164.97488375623035        6.98559873080555       -3.58185516581029
H          166.60069857979599        7.51132346018434       -7.73482780342392
H          167.12458296353319        4.49566146742308       -6.32600278676339
H          167.09560412912353        2.65448304254492       -4.68048276796860
C          181.15815277537453        0.04516872750133        0.07829777877677
C          181.78770825956497        0.97151010811733       -0.77616522280221
C          181.14234780433290        1.88034221234739       -1.65384811940179
C          182.10951760857429        2.61076913965431       -2.28842525706130
C          183.37449039036082        2.17477507902208       -1.80772589320478
N          183.12914950987999        1.17527556065964       -0.90463299344802
C          184.63537375419614        2.65214119538279       -2.18618956907936
C          185.86161515163064        2.16719282098391       -1.72699242484569
C          187.14563078542122        2.73710461703077       -2.09564708081463
C          188.08523525311784        2.00049042337460       -1.46779367414914
N          186.04151629906710        1.12172904207005       -0.87430024450704
C          187.37380596337144        0.98977742366645       -0.71062161120905
C          188.03074827711248        0.01198023322402        0.06294761021754
C          187.40135741991074       -0.96868409313162        0.85383770387677
C          188.04614987546802       -1.97469313963219        1.61865357061854
C          187.07901234816441       -2.70349301405994        2.25524251793779
C          185.81489837464375       -2.15642139667255        1.90328802006862
C          184.55420638370009       -2.59497223731029        2.32736049290446
C          184.54075784430009       -3.72091857588056        3.29282012864524
C          183.93261496423199       -4.93319625027651        2.95636642075199
C          183.92449762822724       -5.98306746980264        3.85603990898886
C          184.51924743221539       -5.83905922061594        5.11096698674895
C          184.48247831039330       -6.99221842588625        6.04222321357496
O          185.07900394794660       -6.75066352147417        7.21931979919994
O          183.97272787070199       -8.05416540454977        5.78984097066891
C          185.12516956690732       -4.62978325107255        5.45290479907926
C          185.13744781197457       -3.58225431721265        4.54853759401023
C          183.32827495501033       -2.06496734422262        1.92168129481553
C          182.04491072152413       -2.51139281612772        2.43447138929427
C          181.10527757445644       -1.77476633621199        1.80671903554804
C          181.81612327370763       -0.87484635927425        0.92002947062356
N          183.14766157226390       -1.06250080493153        1.01815651114057
N          186.06017273985682       -1.11763714567161        1.04616449132173
C          184.65103006599088        3.77010275971035       -3.16053723813348
C          184.05586757384043        4.99440553312937       -2.84484060833741
C          184.07408450804701        6.03466563128419       -3.75558017801832
C          184.68260761246890        5.86886921903619       -5.00111137258351
C          184.67308038396317        7.01236495543277       -5.94489524300818
O          185.28637377450320        6.75241301180494       -7.10924231796611
O          184.16910314421827        8.08162108976294       -5.71234085418095
C          185.27625413989813        4.64776540153389       -5.32213755930218
C          185.26133487406975        3.60967065233474       -4.40718319744224
H          180.07460102974125        1.95512333196409       -1.78171600852620
H          181.96147649647205        3.37769646230315       -3.03092891586526
H          183.84754915694978        0.65913560036380       -0.40790971030964
H          187.28672402725550        3.59307271189350       -2.73532918057679
H          189.15716835098584        2.11395481129155       -1.49141175987654
H          189.11345093400661       -2.11840344569019        1.66633337941261
H          187.22634965439912       -3.55126548397227        2.90410533205097
H          183.48061972836456       -5.05046840904505        1.97809441000908
H          183.45928892169010       -6.92849190365654        3.59945807236889
H          185.01127174139222       -7.54891658812450        7.76799717979999
H          185.58434248332802       -4.51206300837205        6.42729881647036
H          185.59719099907818       -2.63846759568576        4.81958203444754
H          181.90452741418341       -3.27455425685314        3.18256635400424
H          180.03368498444243       -1.81162941679399        1.91985094125504
H          185.34210702729507       -0.54572487879296        0.61426437375020
H          183.59499158929285        5.13024013228890       -1.87300722288458
H          183.61944685370628        6.98933505697270       -3.51469888057404
H          185.23721443165121        7.54583567015126       -7.66682767932501
H          185.74696929809610        4.51361795643214       -6.28885354723413
H          185.71191696268420        2.65688469520725       -4.66112359516767
