122
 energy: -207.539553314277 gnorm: 0.000310712058 xtb: 6.5.1 (b24c23e)
Co          16.70030465564653        0.05006499086197       -0.04414631061733
C           13.32913962819627        0.12222081190733        0.01425523582254
C           13.99417543136492        1.06229694304223       -0.74426151630745
C           13.34373524627379        2.04406270481030       -1.55643388894223
C           14.30693023564859        2.89808659922004       -1.97850420748350
C           15.54197909979832        2.44413209851514       -1.41037125939673
N           15.34871603609934        1.28148071101082       -0.71008632536240
C           16.73495520874290        3.15648598730625       -1.45980215580141
C           16.74855539926345        4.50267644317865       -2.07061558467659
C           17.61034875994896        4.79903522624270       -3.13012995559717
C           17.62880909819106        6.05987218913340       -3.69881840487286
C           16.78340068036544        7.06094747736932       -3.21285321195152
N           16.83702255971958        8.33801808760316       -3.74241732541334
C           15.92592675890828        6.77604893579443       -2.14673612322384
C           15.90570736298685        5.50942269688763       -1.59149784476877
C           17.91293849863121        2.63719226795802       -0.94108220255508
C           19.15844669332131        3.34324160204067       -0.91028144209643
C           20.10274558114004        2.45398051860671       -0.51804820775548
N           18.08318477817828        1.34711730908715       -0.49248072707832
C           19.42954313774924        1.21402407381770       -0.29566662466765
C           20.08996112566027        0.01503283058360       -0.02346625696148
C           19.39728677273537       -1.16687022572633        0.24522781951028
C           20.03430557160819       -2.42815022136624        0.45137810133672
C           19.06608500747715       -3.29243958946267        0.84263257993701
C           17.84310658535010       -2.54942645987421        0.89012186466804
N           18.05046653354998       -1.25942085523786        0.45850140860691
C           16.65386743066195       -3.03453687369608        1.41724096365458
C           16.62927464502212       -4.38333301245877        2.02136341992646
C           17.49570411305546       -4.71398145712625        3.06704679026852
C           17.47550137817665       -5.97553684278255        3.63373736104296
C           16.59345439577259       -6.94680987593428        3.15241922863878
N           16.54440448871783       -8.19769642480185        3.74108818758070
C           15.72057360593022       -6.62346743658224        2.10999892604758
C           15.73991324879715       -5.35613394702208        1.55629308057303
C           15.48506727852949       -2.28231544538990        1.38737786127212
C           14.24385784834716       -2.69789256077629        1.97193243073645
C           13.30501227604273       -1.80669132667991        1.57374635475056
C           13.97591310722693       -0.84205597509478        0.75732240829300
N           15.32302871231525       -1.10310403438727        0.70631216205075
H           12.24560975663243        0.14079250946099        0.02505495782619
H           12.28516195649146        2.06380875196020       -1.76208782822728
H           14.20326241454440        3.76087052046025       -2.61657409885464
H           18.25712654683322        4.02302555308813       -3.52481584359523
H           18.29738903410733        6.27536631496969       -4.52520413385062
H           17.20572360595204        8.39818625214516       -4.67801905944440
H           16.01352128284216        8.89840599086859       -3.59142500961051
H           15.27752913241650        7.55293060929561       -1.75639592233689
H           15.24584684254759        5.30004305827870       -0.75664925388663
H           19.28406034519884        4.38491472240076       -1.15684017587974
H           21.16187122892739        2.60861198515578       -0.38829865902384
H           21.08716031760564       -2.61337477743491        0.31071187063291
H           19.16148492971817       -4.34035172675487        1.07633661205949
H           18.17597580407502       -3.96312876030104        3.45378333994827
H           18.14458220765634       -6.21603881728034        4.45271581395556
H           17.38009816723794       -8.47253671335347        4.23187531218108
H           16.14909318935573       -8.92537910919764        3.16750739035646
H           15.03176054569661       -7.37213728536963        1.73406831510677
H           15.07338400891326       -5.12001231740184        0.73395924089501
H           14.11991190764925       -3.56168666598050        2.60483504568504
H           12.24961790996973       -1.79175949435506        1.79536628983611
Co          27.50908415625210       -0.06447134035663        0.01731337664939
C           30.88024815502735       -0.05564237909836        0.10973622380842
C           30.21521684125182       -1.20728133618831        0.47418778380947
C           30.86565774428813       -2.42667765569382        0.84372654059422
C           29.90246673417165       -3.25033711275375        1.32236401485254
C           28.66741913206808       -2.52597648670459        1.25791636773267
N           28.86067864302122       -1.29989855606021        0.67577499110661
C           27.47444488493157       -2.96076959723933        1.82435488782931
C           27.46084790412123       -4.21368581633301        2.60890675749214
C           26.59905436022169       -5.26053230665513        2.27050915303531
C           26.58059876444776       -6.43118090350987        3.00718904388620
C           27.42601133322077       -6.57925603173081        4.11008585601333
N           27.37239213430457       -7.72626399913474        4.88191437332441
C           28.28348559072067       -5.53323918757198        4.46168328183306
C           28.30370140664274       -4.37060260580617        3.71274516660360
C           26.29645811114793       -2.24150291509718        1.67812283362836
C           25.05094620781497       -2.60595290206310        2.28361571642252
C           24.10664368316615       -1.78770552767288        1.75911942836208
N           26.12620974359093       -1.15480003030098        0.85070863059312
C           24.77984758155004       -0.91723807059919        0.84849863996544
C           24.11942909608365       -0.02789087892143       -0.00046244566040
C           24.81210252029469        0.84909841502191       -0.83711226881418
C           24.17508589120920        1.71780697414832       -1.77448787347651
C           25.14330222904002        2.52147779731634       -2.27866918588694
C           26.36627581971409        2.15053929596218       -1.63311590857636
N           26.15891847165573        1.07801881870791       -0.79639049811277
C           27.55551079872680        2.85793708165189       -1.74619106686536
C           27.58010310121992        4.10671475267302       -2.53661491687631
C           26.71367528804151        5.16098162269568       -2.23444717568841
C           26.73387863805575        6.33035327159691       -2.97284488299782
C           27.61592264575194        6.46582146914895       -4.04834105806786
N           27.66497263906337        7.64761521947189       -4.76570498955390
C           28.48880130976021        5.41831003441886       -4.35479581583142
C           28.46946235193102        4.25656995346867       -3.60440704601755
C           28.72431102735009        2.41742491315374       -1.13571889261283
C           29.96552046429598        3.13426655503579       -1.15912145993013
C           30.90437020280694        2.30996266564214       -0.63633441935993
C           30.23347052009182        1.09648978852003       -0.28341018985708
N           28.88635308264883        1.19821104813834       -0.52916446237173
H           31.96377852307716       -0.05690180545898        0.13116808815133
H           31.92422929049269       -2.60900195816733        0.74654313327327
H           30.00613588716072       -4.25887497023457        1.68894229000508
H           25.95227501515363       -5.16073274003736        1.40563598081507
H           25.91202005187967       -7.23903593722885        2.73019990976285
H           27.00368705410060       -8.53932586713310        4.41511878829978
H           28.19589358482772       -7.91004543405203        5.43242098795428
H           28.93188720419849       -5.63714344109111        5.32488038145745
H           28.96356359804607       -3.55907401071893        3.99950530810856
H           24.92533204794728       -3.38700658394365        3.01561913882122
H           23.04751399764427       -1.76501358866100        1.95967552802940
H           23.12223556398420        1.70288522024725       -2.00661278333541
H           25.04790375572877        3.29527173407960       -3.02296804177948
H           26.03340308371667        5.06846541035165       -1.39493236975356
H           26.06479955326303        7.14585454374195       -2.72079932188868
H           26.82928034825483        8.20854292614509       -4.72361505218047
H           28.06028573121171        7.57159369409686       -5.68914215246327
H           29.17761158497976        5.51862585547729       -5.18652355013251
H           29.13599066783294        3.44069240308586       -3.86195597961323
H           30.08946348599171        4.13906008217428       -1.52938769878942
H           31.95976641125724        2.48642846522384       -0.50144784374041
C           21.49655312796875       -0.00245509766755       -0.02034895990985
C           22.71283711307712       -0.01563347678062       -0.01331410735402
