191
 energy: -332.550211505404 gnorm: 0.000661632220 xtb: 6.5.1 (b24c23e)
Cu          29.07871895857564        0.02124485577879        0.02459570577220
C           25.67448090483902        0.08682734517912        0.07914057560347
C           26.31162836872368        1.20050635079702       -0.44734046344602
C           25.63906294684953        2.33286559643880       -1.01549068136668
C           26.60001485900412        3.20019661980022       -1.42087175505215
C           27.86879175878649        2.61167710670948       -1.08943685958605
N           27.66265631059544        1.39434490575704       -0.50650720567269
C           29.11460995956165        3.19382102209250       -1.34064402749345
C           29.13175098254912        4.55117528291837       -1.93658761149803
C           29.74168743812032        4.77647821747439       -3.17319072086625
C           29.75503156375563        6.03909461550369       -3.73864447752399
C           29.16874774364775        7.11448603567326       -3.06631525554170
N           29.14512971081549        8.37112238581589       -3.64668719932868
C           28.55451179509940        6.89733774902466       -1.83028398572983
C           28.53660915490443        5.62922794848036       -1.27693811420937
C           30.34518740569906        2.58928548948314       -1.07316179080899
C           31.62293817024759        3.21775269044327       -1.25154165102841
C           32.56687605180188        2.31593055588985       -0.87905733175362
N           30.53081658338379        1.32278941981068       -0.58394720232407
C           31.87334742185480        1.13459989052086       -0.46386068669501
C           32.50647662912443       -0.03781975003050       -0.01348262387787
C           31.84365352982701       -1.19020851162981        0.44563525711052
C           32.50559329815454       -2.39629104131589        0.84070113951591
C           31.53977422718711       -3.26810515449830        1.22836009272594
C           30.28051047670079       -2.59548980747505        1.08188647438944
N           30.49848090358104       -1.33367340590113        0.59369272419417
C           29.03607031174862       -3.15661877142210        1.37852118326926
C           29.01772118138724       -4.51801825747302        1.96486375741136
C           29.65589595161435       -4.77830868707465        3.18016504474455
C           29.63514505596721       -6.04513633992096        3.73594623140017
C           28.98428218681093       -7.09010714959668        3.07516013774629
N           28.92673972326562       -8.34934773358065        3.64731014498480
C           28.34109651286353       -6.83778735252327        1.86070158330182
C           28.35841350902681       -5.56557088354803        1.31695567627138
C           27.80626611093137       -2.52609071304231        1.16738238495002
C           26.52696404863800       -3.06648573024302        1.53819439538935
C           25.58788439002107       -2.15987311912416        1.16918023327296
C           26.28503455731231       -1.05202429127045        0.58272216335894
N           27.62873382999124       -1.29871479211222        0.59635925214457
H           24.58958352267739        0.10809626100982        0.09771907591953
H           24.56826610403565        2.43272394117878       -1.10011023779961
H           26.46776177036854        4.14975794870987       -1.91408941993197
H           30.19142600635514        3.94510954855485       -3.70504521657349
H           30.22115337217732        6.19876840034551       -4.70483261380454
H           29.86289645892135        8.53544984837728       -4.33438775791053
H           29.01718725070899        9.13483012451618       -3.00208233672087
H           28.09543799877941        7.72774850200472       -1.30493002605307
H           28.07366939986860        5.47261520073894       -0.30868193406746
H           31.77466137703234        4.22689687677740       -1.59903733811217
H           33.63862116208883        2.43475810615791       -0.87437451357386
H           33.57240225900046       -2.55099026213760        0.81198988514656
H           31.66502911890486       -4.28373800691513        1.56745175056641
H           30.15513182831409       -3.97042312615060        3.70398118765932
H           30.12427259795910       -6.23166746571710        4.68580213639102
H           29.65615631309081       -8.54767724134625        4.31345494602752
H           28.74981358213640       -9.10233133826980        3.00171486737750
H           27.83157523501786       -7.64421556891519        1.34456403604339
H           27.87213922291487       -5.38222443179584        0.36496395941638
H           26.37381422181761       -4.01268795833518        2.03179493834909
H           24.51742920627374       -2.21810741932223        1.28947706031286
Cu          61.15783584115200       -0.01693870748540        0.04360629231617
C           64.56255834309987       -0.01038065305816        0.12019913319216
C           63.92634509990609       -1.06442207078498        0.75875767257159
C           64.59990654003198       -2.16313463786249        1.38859585614039
C           63.63967088582941       -2.98103670546783        1.88756387333102
C           62.37030989170312       -2.38097071531389        1.57961423006293
N           62.57555455920477       -1.22183132113496        0.88806407547204
C           61.12485752371489       -2.91544354680983        1.92209866810500
C           61.10899887874958       -4.16448087638840        2.72080193669920
C           60.50575193317223       -5.32074484778251        2.21981586169440
C           60.49308415067092       -6.49138668945426        2.95712839496507
C           61.07341725293931       -6.52590282896944        4.22764425887801
N           61.09781092578986       -7.70553096557253        4.95189809644604
C           61.68111655321589       -5.37463619582376        4.73503455307508
C           61.69834497213323       -4.21099813440054        3.98648342023945
C           59.89358104466113       -2.36014593976061        1.56579971842273
C           58.61608950685337       -2.86176829382497        1.98532672102614
C           57.67151372331885       -2.04971593712780        1.44561997423436
N           59.70683020589005       -1.24699220658347        0.78870087242421
C           58.36428119966897       -1.04329468481746        0.69960792249630
C           57.72949701138013       -0.01203098874226       -0.01602439863698
C           58.39055771159276        1.01273260606350       -0.71658985896583
C           57.72746559390493        2.01330761387504       -1.49638593126098
C           58.69300325376485        2.81649660739176       -2.01193241833570
C           59.95342220696458        2.31760082547583       -1.54041075325206
N           59.73621188696846        1.21204282314725       -0.76050097323256
C           61.19793259066937        2.87187931726228       -1.84991149027499
C           61.21636853716875        4.11247433941019       -2.66124782041471
C           60.58415840558092        5.27191936943547       -2.20531852638905
C           60.60579070905607        6.43426659239417       -2.95553378954629
C           61.25161966192461        6.45740910473277       -4.19431351744471
N           61.30987458171204        7.62894272903400       -4.92949397125733
C           61.88927782338546        5.30317754352669       -4.65624750551772
C           61.87102656920008        4.14793239504415       -3.89499615658508
C           62.42861684978364        2.34453195793068       -1.44734981859101
C           63.70805449264653        2.95034610428769       -1.69726292804561
C           64.64789500191625        2.13990521898213       -1.14971186033014
C           63.95122108974752        1.03945254577342       -0.54878068824689
N           62.60709850429720        1.18941910179803       -0.74187825872680
H           65.64752985772726       -0.00740924781680        0.14564725905466
H           65.67081555014998       -2.28789756828809        1.42510120872320
H           63.77271673370281       -3.91644334403892        2.40692580150237
H           60.06063873213281       -5.30409313601907        1.23092338983182
H           60.03203737554538       -7.38567087611463        2.55217619526573
H           60.38379067482504       -8.37167435556651        4.70378689872421
H           61.22027159739015       -7.59199675313014        5.94550556752768
H           62.13560402571046       -5.39612851493393        5.71957192449447
H           62.15629171802775       -3.31674546048358        4.39509158340961
H           58.46478455380287       -3.71512947139817        2.62646516998358
H           56.59977998034110       -2.11388998152997        1.54591535359394
H           56.66010120663124        2.07840898114588       -1.63555028696541
H           58.56689228110128        3.66221911208918       -2.66845244266828
H           60.08898705659989        5.26508822623018       -1.24039644438759
H           60.12131701325391        7.33111417941456       -2.58506060867586
H           60.58328499023132        8.29627139345432       -4.72489964520085
H           61.48280531708804        7.50511130091054       -5.91430387147414
H           62.39527964808777        5.31586071492251       -5.61549227352512
H           62.35308221688368        3.25124699135955       -4.26908675276353
H           63.86091494517446        3.88495192273411       -2.21258468214285
H           65.71861942005044        2.27067292183038       -1.13564507652328
C           37.70858844748098       -0.07209077651999       -0.03062542021307
C           36.48008306974136       -0.07250559047181       -0.02815173604315
C           35.13566914402467       -0.06558390561152       -0.02590157373805
C           33.91168786291952       -0.05781815285649       -0.02171079260550
C           39.05290990799941       -0.07062723906389       -0.02841129495239
C           40.27706618929848       -0.06616813808500       -0.02634246792674
C           53.75519331732242        0.00110409835766       -0.03643708518486
C           52.52670369149727       -0.00159968996999       -0.03373670744352
C           51.18214945547633       -0.00379919760264       -0.02268769194057
C           49.95810347869998       -0.00656471478963       -0.00766015105255
C           55.09991382342520       -0.00089996987260       -0.03648166779264
C           56.32386672122879       -0.00710552858525       -0.02996823647997
Cu          45.11684585235947       -0.03071989302531        0.00437866594392
C           41.68197323205560       -0.05958631715824       -0.02658972839574
C           42.32328615039822        1.14274805755260       -0.37693740999900
C           41.63653609427023        2.35796405981473       -0.69434858693623
C           42.58692711607466        3.29430274396610       -0.94606483768586
C           43.86134284396437        2.65224771152655       -0.79580555930385
N           43.66714737272711        1.34356978220721       -0.44019359637116
C           45.09799259391773        3.28084127695034       -0.96067722354009
C           45.09099390432191        4.70801317508120       -1.36537051201784
C           44.52225989109836        5.10316096951330       -2.57834563484664
C           44.51953015925296        6.43304928137946       -2.96070589632994
C           45.08676546905689        7.40260733051446       -2.12993646837465
N           45.04361783608051        8.73966939682262       -2.48687934260332
C           45.64525740315127        7.01720255787783       -0.90858207050697
C           45.65218971567921        5.68401349389166       -0.53840587941288
C           46.34175255984461        2.67201694358088       -0.77485881788714
C           47.60822204996377        3.30616664089182       -1.00479615479474
C           48.56981120156372        2.38706051273458       -0.73244263857921
N           46.55160753278879        1.37727505951826       -0.38005712422222
C           47.89781021255383        1.18478628890130       -0.34260890740660
C           48.55302078434826       -0.00958659590701        0.00876398466063
C           47.91153443172043       -1.20929904582712        0.36742563501071
C           48.59716858456871       -2.42453653862917        0.68711594625613
C           47.64613016486303       -3.35352209933887        0.96302237688676
C           46.37256167267319       -2.70780972165226        0.82142822358026
N           46.56759901034227       -1.40421248070583        0.44894642325350
C           45.13584482630546       -3.33070068203755        1.00785890352393
C           45.14464793816006       -4.74722771741422        1.44808581315329
C           44.57485799346971       -5.74489304346597        0.65365381845822
C           44.58439787329717       -7.06748156549530        1.06020806473634
C           45.16498974027492       -7.42159377877748        2.28069436657599
N           45.13229130181549       -8.73617612471073        2.71397070950888
C           45.72593267634663       -6.42788827220924        3.08684872092985
C           45.72079768419536       -5.10911195742469        2.66802109302440
C           43.89211409641037       -2.72516214111371        0.81249618248621
C           42.62511187193324       -3.35564342460822        1.05002148370700
C           41.66402219778497       -2.44424119559775        0.75171795391779
C           42.33674046956855       -1.24876157584944        0.34258945238963
N           43.68291064629160       -1.43849074045391        0.39123640198849
H           40.56458163664023        2.47382628185770       -0.71004675560631
H           42.43982298179531        4.33232103175940       -1.19666358652692
H           44.09622223193184        4.35419144668049       -3.23701953221292
H           44.08097261080422        6.72669094333099       -3.90821220438250
H           44.93537467909069        8.91219525620103       -3.47356967522082
H           45.73955180228868        9.32006215121388       -2.04691577020255
H           46.07395871596207        7.76722351982431       -0.25284343582275
H           46.07999816660204        5.39349398220682        0.41497766457058
H           47.74215208774885        4.31976493680146       -1.34658301095434
H           49.64019467514750        2.50233390213929       -0.79424102400090
H           49.66877085608683       -2.54496696729998        0.68948707063683
H           47.79151075324688       -4.38946236071155        1.22348061486149
H           44.13769603149653       -5.48026985506852       -0.30297559444783
H           44.14456848567408       -7.83406387014211        0.43154708598996
H           45.83080471024260       -8.97546874132698        3.39952584160358
H           45.02847330982402       -9.42210030940147        1.98329799351509
H           46.16593660477967       -6.69479624694879        4.04155470681494
H           46.15065439971502       -4.34226575507538        3.30323250838111
H           42.49026716910679       -4.36139293454828        1.41375489119767
H           40.59344288798210       -2.55941539203915        0.80996110947355
