392
 energy: -671.647306453879 gnorm: 0.000460389822 xtb: 6.5.1 (b24c23e)
C           83.75733510475310        0.02710581698042        0.08704328288408
C           84.36201529161153        1.26168274335884        0.28428948114429
C           83.70719574806037        2.51247472378396        0.46414367785655
C           84.66696445484354        3.46864249347956        0.64149574843776
C           85.93924408573649        2.83057747309956        0.58687797321284
N           85.70461046029534        1.50479594589540        0.35718274679171
C           87.20074230709204        3.41922662838699        0.72884426224486
C           87.22855537436187        4.87483941377174        1.00526732320509
C           87.85796147162415        5.76297939740542        0.13342762968594
C           87.85380652534641        7.11705909196775        0.42805873720594
N           87.27720026001444        7.62014204118410        1.51493425240573
C           86.67860613722945        6.78046044886523        2.35331957549504
C           86.62547315237137        5.41160874293894        2.14229126192764
C           88.41937480660492        2.74277570646797        0.63276512498366
C           89.70942592751456        3.36406992208037        0.87272019728388
C           90.63680028419378        2.40310946626434        0.68284789478932
N           88.58434087937682        1.42670333886468        0.32612149160895
C           89.91345476063586        1.19669462289097        0.33083887760134
C           90.55849572296587       -0.02096895525037        0.03503069822444
C           89.92606257266755       -1.24634267839618       -0.24811528909872
C           90.56858466841281       -2.46413641325473       -0.59425658474850
C           89.60371999294010       -3.41649404755805       -0.77292801064797
C           88.33984425630587       -2.80881810943026       -0.53650441560025
N           88.58570713454934       -1.49556997252890       -0.23461462791706
C           87.08010008244197       -3.41261028573144       -0.61686227359034
C           87.05568355628857       -4.86311292028447       -0.91620460592006
C           87.67308017402895       -5.78815224121802       -0.07443439282922
C           87.62148972735864       -7.13520524884783       -0.39616442175537
N           87.01149641812678       -7.59771544907421       -1.48270625986525
C           86.42240921986840       -6.72292416124146       -2.29174446819972
C           86.41544993908374       -5.35798972050880       -2.05217185583693
C           85.86029091470795       -2.75135746105782       -0.44072026284272
C           84.56143427199792       -3.40611531779339       -0.47404215581473
C           83.64168791193579       -2.43999420047975       -0.27942831909746
C           84.37766026585186       -1.19846492079396       -0.11646038670966
N           85.71099608591106       -1.42612515556067       -0.20680109943463
H           82.67206404465810        0.02993507012492        0.09402624621606
H           82.63777115822897        2.64998879604361        0.45162617567247
H           84.51327457415550        4.52517872230748        0.78962948133790
H           86.43092568188467        0.80402381745629        0.25444621350056
H           88.33018143265348        5.39906795585026       -0.77124889388432
H           88.33350570970188        7.82809525248904       -0.23815347942088
H           86.22021772410609        7.22081574942231        3.23398411038099
H           86.13805366179176        4.76441422738380        2.86178095065380
H           89.86205360387071        4.39024492610481        1.16508464134598
H           91.70756606056939        2.47617968277165        0.78200510592277
H           91.63383307186560       -2.58599434144934       -0.70350073076491
H           89.75114301492367       -4.44573796196019       -1.05653155756286
H           87.86422737561163       -0.80923131447804       -0.03971785614453
H           88.17069874546091       -5.45899799445975        0.83011345685707
H           88.09051600713704       -7.87418205155460        0.24692842776327
H           85.93455768620511       -7.13083490731761       -3.17220431480073
H           85.93386996578771       -4.68102026576496       -2.74763156480655
H           84.40108221526778       -4.46292999056917       -0.61427108432952
H           82.56741492565870       -2.52839723817474       -0.23744535072943
C          156.02038029392020       -0.01088567018665        0.05234548171264
C          155.42703991271048       -1.20436912189292       -0.33759835239712
C          156.09359502266946       -2.39480207578264       -0.74298179608103
C          155.14249623458861       -3.32838017628641       -1.04371130076324
C          153.86377636207939       -2.74186501286747       -0.82018265707814
N          154.08645740716489       -1.46012010521285       -0.40413552061688
C          152.60772400725020       -3.32914812755821       -1.00680601483766
C          152.59628039276549       -4.74040384008433       -1.46031631737531
C          152.01869355163436       -5.10455482503959       -2.67623174648120
C          152.03775987542019       -6.43548098018217       -3.06199875230340
N          152.58188943876416       -7.39646371661715       -2.32224665708759
C          153.13166422133986       -7.05862422443950       -1.16040538807708
C          153.16604982308789       -5.75471202551751       -0.69158012371663
C          151.38178314570607       -2.69181434234492       -0.80022083925107
C          150.09517870847947       -3.34775164182221       -0.94997877897515
C          149.15868774442933       -2.42048535970731       -0.66334571216498
N          151.20492398523078       -1.39866260871357       -0.41380955430045
C          149.87250653752628       -1.20329162319050       -0.32934815225965
C          149.21704475926239       -0.00220398429924        0.00550462496530
C          149.83705318639318        1.21589996347175        0.34038524063419
C          149.18053968106409        2.43268005843567        0.66420634189856
C          150.13680453535639        3.36866459070686        0.94475403790056
C          151.40941633874976        2.74703335102546        0.81431963898137
N          151.17667122236435        1.45051709003438        0.43865245707314
C          152.66411379784668        3.33489662154511        1.00726053418548
C          152.67610991304647        4.75538610191795        1.42914043223145
C          152.09272758274690        5.16130405320554        2.62905268495045
C          152.13164593906822        6.50141545061197        2.98038145068918
N          152.69819759580901        7.43332293634650        2.22073444301807
C          153.25523732521901        7.05532406826556        1.07463797942101
C          153.27174479738238        5.73929844430443        0.64054516271987
C          153.89083302646040        2.68499111833929        0.83851600910570
C          155.18395675369928        3.29789367329045        1.10139605759390
C          156.11305995407847        2.35825954957372        0.83509722743446
C          155.38864619664875        1.17021793545907        0.41851828650772
N          154.05300906252009        1.40111434480283        0.44036975804973
H          157.10557525629278       -0.00930149657261        0.06699235316185
H          157.16458010376030       -2.50652374774552       -0.79999551827097
H          155.30599011163144       -4.33342705851445       -1.39726136479247
H          153.35377705159561       -0.79455832156865       -0.18195041261426
H          151.57485560745317       -4.35295013255757       -3.31808472347598
H          151.59786173940682       -6.74244665525517       -4.00636405813448
H          153.56488950589295       -7.86594411591330       -0.57716619443671
H          153.61374585682432       -5.52880993180288        0.26896418643848
H          149.94972070430964       -4.37983425752433       -1.22453158782509
H          148.08619484341776       -2.52685211806466       -0.67162379675513
H          148.11139195832914        2.56779675334827        0.67890766197909
H          149.97746091081873        4.40037745347148        1.21241601242976
H          151.90548688931926        0.76725744609317        0.26077381587409
H          151.63124216349377        4.43477958942335        3.28730473400051
H          151.68856787947090        6.84031702783255        3.91227341360419
H          153.70818936745650        7.83958706625472        0.47517801707750
H          153.72685825401146        5.47943286737217       -0.30772443337253
H          155.33413163748179        4.30555037720182        1.45398871241710
H          157.18679856826711        2.42913738643789        0.91068769342667
C           91.96753463902284       -0.02694161160205        0.01678732518433
C           93.18474704436294       -0.03019774300923       -0.00362277538942
C          102.88612306134993       -0.02058275577942       -0.01596881916781
C          104.10435899444684       -0.01642008009638       -0.00806102307856
C          113.81165746326099       -0.01425638190951        0.00621903762395
C          115.03026477315372       -0.01478937207897       -0.00065154644728
C          124.73944409987942        0.00575930948387       -0.02271014064118
C          125.95806777026506        0.00822428608539       -0.02101495994072
C          135.66563008860587        0.02394658450672       -0.00355032078690
C          136.88386920430435        0.02498184507033        0.00052655879956
C          146.58944433514966       -0.00319534481575        0.01014171155155
C          147.80645505297079       -0.00334847240168        0.00588077600148
C           94.59279438907765       -0.03171838013399       -0.02123816784757
C           95.22420373903212       -1.27636600866117        0.16491003430716
C           94.58840757562068       -2.51872892368637        0.41781010876260
C           95.55779717381948       -3.48164504242004        0.49211373453790
C           96.81523494901398       -2.85362191870339        0.28193367663379
N           96.56457345192067       -1.51939729666651        0.10676454453874
C           98.07414444472263       -3.46692713204653        0.25281769327930
C           98.08928858173928       -4.94293747673598        0.38597304730493
C           98.76111528965970       -5.56688354139457        1.43691254470248
C           98.74245993430209       -6.94973714395150        1.52497714854321
N           98.11376084909517       -7.72320590410676        0.64556498285201
C           97.47456280595388       -7.13717443446316       -0.36160864663754
C           97.43099817976811       -5.76226458356928       -0.53076307600729
C           99.29737879540838       -2.80973457141611        0.11278431832673
C          100.57222597923882       -3.49397270561510       -0.00538417322827
C          101.51490624228988       -2.53217769217080       -0.08609149569309
N           99.48521805503438       -1.46153478702978        0.07325859271605
C          100.81601260419021       -1.26464562597338       -0.02031593600600
C          101.47915397001681       -0.02028338351153       -0.02613602205299
C          100.84624387357258        1.23813595743258       -0.04488697854225
C          101.47961885949779        2.50616993271973        0.00168243940305
C          100.50982284327748        3.46654718038410       -0.09362334157146
C           99.25388737599320        2.81062330121656       -0.20369813331769
N           99.50606412453936        1.46604122985825       -0.14933581761589
C           97.99603888834442        3.41038313280397       -0.34349710198695
C           97.98407146940576        4.88629981988989       -0.47697341048552
C           97.30856142932608        5.69187425479633        0.43942816871579
C           97.32963816396905        7.06761239693258        0.27416009925197
N           97.96450048846063        7.66735488982505       -0.72796856556492
C           98.60820407413047        6.90715370471207       -1.60776498430499
C           98.64948634244341        5.52438267891319       -1.52357870281832
C           96.77177604544529        2.74012769701551       -0.36601603836147
C           95.49563822380755        3.39437612660509       -0.59355404369356
C           94.55257764513702        2.43427721290267       -0.50024764037582
C           95.25323044781210        1.19625188918690       -0.22345575380471
N           96.58495797478379        1.40579429820380       -0.17221095844404
H           93.52560822234851       -2.65139418691830        0.53744999318827
H           95.41611876841755       -4.53202774668636        0.68716577571732
H           97.27766219463946       -0.81290878357828       -0.03990893276248
H           99.27689987100798       -4.97553019232564        2.18402859409712
H           99.25372345664297       -7.45774167527685        2.33742885248501
H           96.97393696416701       -7.79550120812216       -1.06557599710440
H           96.90760807825194       -5.32965802282488       -1.37519347974090
H          100.70490353016525       -4.56309153267679       -0.04026469949829
H          102.58094617622368       -2.64556940681623       -0.19706966690920
H          102.54091468661339        2.65908279302741        0.10635707097131
H          100.65004392565247        4.53490656334763       -0.07627630906956
H           98.79414068977353        0.74407788839674       -0.18050077069976
H           96.78805552692896        5.24719599773681        1.27920399021809
H           96.81503408287145        7.71570556905952        0.97748528512940
H           99.11432882864828        7.42562478712091       -2.41687356583967
H           99.17662910147313        4.94459386102364       -2.27200963405792
H           95.36228551276822        4.44147040117996       -0.81162766981800
H           93.48556929993737        2.52792495343120       -0.62047341024296
C          105.51114574492570       -0.01796511594059       -0.00301683261721
C          106.14310274309373       -1.22709293446502        0.34868925428128
C          105.51092467203881       -2.42596083277075        0.76556031626960
C          106.48110783968123       -3.37376771941125        0.94750720067289
C          107.73541890035860       -2.77992183637348        0.64196834894775
N          107.48287779216487       -1.47649848571858        0.30839809404998
C          108.99209829557566       -3.39845139786407        0.65660930510750
C          109.00700260318308       -4.85177081255617        0.94527578595126
C          109.71065651151679       -5.36499128921535        2.03473914341487
C          109.69303763162762       -6.73078938669229        2.26837050474485
N          109.03628739067756       -7.58959267354997        1.49502339434069
C          108.36614820324496       -7.10972129472728        0.45238685545403
C          108.31884540813869       -5.76002190667639        0.14101676652125
C          110.21419988614052       -2.76568793531129        0.42349634001366
C          111.48323750595087       -3.46587748359372        0.34354173296307
C          112.42834711238145       -2.52125538533194        0.15705757173016
N          110.40717134351343       -1.42825134759057        0.25496418133737
C          111.73724046633562       -1.24867544405588        0.12221689601889
C          112.40502375024396       -0.01168624861534        0.00826846158222
C          111.77137904194348        1.24176771538159       -0.10781057292470
C          112.40195652182135        2.51065851268903       -0.15889446411567
C          111.43172218518227        3.45776810364300       -0.34365640399334
C          110.17852533556484        2.79175020091420       -0.41427408272601
N          110.43188395821356        1.45733637460568       -0.24226112247784
C          108.92288726552094        3.37172343767868       -0.63539895446836
C          108.91031726832040        4.82838479550192       -0.90728787936696
C          108.20663093977649        5.71141121362136       -0.08853190323011
C          108.22779121928750        7.06608078153904       -0.37978939282766
N          108.88796265274605        7.57421099927947       -1.41561315863985
C          109.55799685728492        6.73955466309428       -2.20349908690831
C          109.60186099654010        5.37079890874434       -1.99028135475015
C          107.70066347468070        2.69778013659405       -0.62263397319944
C          106.43190437121910        3.31853562176290       -0.95738309961309
C          105.48678209662499        2.37125629886611       -0.78435313101835
C          106.17823445170607        1.17553004483803       -0.34740819317453
N          107.50799885847528        1.39228108309586       -0.28711181327781
H          104.45045685456098       -2.54057375325015        0.91733022684341
H          106.34190719149711       -4.39081309318631        1.27561023729831
H          108.19361536249956       -0.79462221625524        0.06568831863973
H          110.25050274013923       -4.70077044905969        2.69907167297672
H          110.22924194829783       -7.15292531412504        3.11329141925094
H          107.84288089198100       -7.83611649122428       -0.16257146047048
H          107.76988266027232       -5.41641787307224       -0.72776023385631
H          111.61045896359325       -4.53457640222003        0.40276895418086
H          113.49119661700115       -2.65128164049366        0.03598973416628
H          113.46156435523477        2.67446538387422       -0.05510023124494
H          111.57015223905420        4.52423510333248       -0.41326962680945
H          109.72171691908760        0.73332073004660       -0.22007044270169
H          107.66434790094512        5.34319998226221        0.77417477506901
H          107.69219908609269        7.77348942663810        0.24649908703091
H          110.08381755878435        7.18388742071185       -3.04355045312429
H          110.15104177261020        4.72746877379874       -2.66754635189641
H          106.30495160064511        4.33395717502566       -1.29597850745927
H          104.42397589483456        2.44670022368692       -0.94658734682407
C          116.43678464846040       -0.01601411534469       -0.00849108271206
C          117.07507875115336       -1.21837199075191        0.35605147250453
C          116.45052909290760       -2.41388408856078        0.79293906731209
C          117.42404962354900       -3.35918043160090        0.96987720705346
C          118.67329265347459       -2.76679791974121        0.64200960040381
N          118.41467132186943       -1.46631744067492        0.30140408681233
C          119.93004104242961       -3.38556345906481        0.64126121365880
C          119.94784084301844       -4.83833198281308        0.93201567985491
C          120.66861352903733       -5.35178725821037        2.01008915904430
C          120.65121087001357       -6.71721848114820        2.24617207181837
N          119.97885977437953       -7.57545154951645        1.48576171294826
C          119.29252878511340       -7.09543574681423        0.45375199848019
C          119.24391700851066       -5.74617882187471        0.14090909295780
C          121.14892800707213       -2.75282075973587        0.39199791302348
C          122.41766325599744       -3.45151991350657        0.29727498792537
C          123.36032788226591       -2.50512724265895        0.10672230110013
N          121.33892274827372       -1.41472315937501        0.22521783624823
C          122.66768377704027       -1.23317905529028        0.08320098194349
C          123.33291699353832        0.00569784514540       -0.02639080141217
C          122.69540604560278        1.25714939237002       -0.14235812634913
C          123.32043756909496        2.52873316364601       -0.19253390468598
C          122.34666622954332        3.47124426720948       -0.38272419554107
C          121.09680325825434        2.79953501945731       -0.45743633913605
N          121.35538270878351        1.46669411471167       -0.28190161221544
C          119.83958231043545        3.37270321036754       -0.68801551123958
C          119.82199744500869        4.82745761687946       -0.96908787534606
C          119.10691514674286        5.71190673261229       -0.16179438723880
C          119.12494553874313        7.06507207689460       -0.46028999209471
N          119.79238976576332        7.57042270582859       -1.49276260299517
C          120.47302896103173        6.73433871524651       -2.27007107350627
C          120.52082925599854        5.36703078394064       -2.04891184037773
C          118.62026871701880        2.69361952212642       -0.67486632248963
C          117.35090940892806        3.30508097171535       -1.02367854187972
C          116.40808322929956        2.35781764281091       -0.83813557765159
C          117.10126599954789        1.17159388105421       -0.37924601204831
N          118.43037601087761        1.39243009949719       -0.32086293891451
H          115.39256516636860       -2.52854370240614        0.96002694464203
H          117.29033405299826       -4.37342483666871        1.30868516144205
H          119.12117577328863       -0.78560456750708        0.04355419984877
H          121.22114943442958       -4.68814488088002        2.66446854291078
H          121.20022625471728       -7.13940697336426        3.08277873746469
H          118.75689038361476       -7.82135342918519       -0.15102004384214
H          118.68139148669448       -5.40247441307516       -0.71910119387376
H          122.54633436683861       -4.52036900409200        0.35056283588514
H          124.42207381598300       -2.63355094172266       -0.02540494782690
H          124.37888257994560        2.69763152678368       -0.08519663574304
H          122.48061695403223        4.53823816344649       -0.45312799541997
H          120.64856672724241        0.73941503412571       -0.26037414457788
H          118.55847936711965        5.34623978826645        0.69809578734569
H          118.58092684738457        7.77355918610819        0.15745315542438
H          121.00435028613512        7.17639063300790       -3.10783884089207
H          121.07874943841070        4.72236346051040       -2.71769866370311
H          117.22209547302404        4.31433528110694       -1.37959474549507
H          115.34590374015265        2.42723936979892       -1.00617256593220
C          127.36467403426734        0.00659254378281       -0.02068207091229
C          128.00002965313979       -1.19749801463933        0.34333415282258
C          127.37183409351726       -2.39392911878708        0.77255987348825
C          128.34398829440326       -3.33906036824029        0.95745718324641
C          129.59607484405902       -2.74563706024422        0.64261871249353
N          129.34009058189466       -1.44502780765335        0.30015091231233
C          130.85304831564366       -3.36341975204329        0.65709409423754
C          130.86802725122331       -4.81564942194788        0.95181674875377
C          131.56851168723250       -5.32536089993311        2.04482700660188
C          131.54816021773561       -6.69025432062225        2.28383228239677
N          130.89219020842430       -7.55122773490843        1.51220734997494
C          130.22577717129585       -7.07472349139375        0.46565824902659
C          130.18104781706748       -5.72616656490329        0.14908794261596
C          132.07425044505550       -2.73103547409936        0.41896524499829
C          133.34480840161069       -3.42894739543795        0.34431431553801
C          134.28832511027375       -2.48330882464511        0.15430773989919
N          132.26420698698979       -1.39430262206486        0.24239721664801
C          133.59398989640744       -1.21256894830171        0.11064625181864
C          134.25880670570831        0.02488799445017       -0.01197585786322
C          133.62423199989496        1.27566186099638       -0.14457577971965
C          134.25289992507845        2.54506880156046       -0.20784401057539
C          133.28090268386487        3.48863153934737       -0.40150347220865
C          132.02877570916954        2.81978543803569       -0.46603473425356
N          132.28437424112786        1.48758812724067       -0.28236415747121
C          130.77149038385295        3.39503422608108       -0.69089351628668
C          130.75507409351053        4.84963782853502       -0.97284958452438
C          130.04699744730539        5.73611518088971       -0.16160572552338
C          130.06559391505019        7.08897627379378       -0.46137716175109
N          130.72731896260746        7.59222942816247       -1.49855624041186
C          131.40136934014077        6.75420774242483       -2.27952356591044
C          131.44792881441217        5.38698815617485       -2.05760975933127
C          129.55102410220826        2.71813841642047       -0.67213500824259
C          128.28144103975492        3.33316616819788       -1.01412773242912
C          127.33812331885494        2.38584011710909       -0.83229511842822
C          128.03094733182411        1.19604261992914       -0.38199445736985
N          129.36030992543499        1.41552362395428       -0.32380089380748
H          126.31241039580649       -2.50920988154823        0.92967041266348
H          128.20771568393874       -4.35386078272830        1.29360113901042
H          130.04890373544586       -0.76404800633830        0.04940668942554
H          132.10752739541144       -4.65933339190341        2.70796205913921
H          132.08098574107387       -7.10983861441289        3.13204817011260
H          129.70341955638804       -7.80284086927754       -0.14790609864456
H          129.63458734155208       -5.38496618973554       -0.72215364368178
H          133.47401692539501       -4.49704939311838        0.41001080127991
H          135.35172131495833       -2.61145605016384        0.03478402020876
H          135.31243096752215        2.71163675317252       -0.10620465547173
H          133.41739835105716        4.55468248658907       -0.48078802397795
H          131.57552513118600        0.76254334683792       -0.25293163731534
H          129.50327565022818        5.37220998166927        0.70204832539040
H          129.52634215403077        7.79891166394995        0.15893984077715
H          131.92860954182908        7.19455166753623       -3.12079026724215
H          132.00026543794741        4.74065044910432       -2.72943948690664
H          128.15272339365029        4.34480390970291       -1.36318366662615
H          126.27558247623143        2.45756501039431       -0.99685530341713
C          138.29100710683423        0.01912869067757        0.00542159809332
C          138.91749862694547       -1.15624690400227        0.46389931249642
C          138.27646974391143       -2.31188473394709        0.97891142535362
C          139.24223239141509       -3.23483882310728        1.27354675600228
C          140.50351268881343       -2.66893892598693        0.94331001924034
N          140.25769649885740       -1.40660656301087        0.47343466942001
C          141.76014288977984       -3.27073669282356        1.08074481541773
C          141.76345324155443       -4.67788220244188        1.54838156279353
C          142.38517933551148       -5.04580655776594        2.74099583478173
C          142.35619704877152       -6.37391345725403        3.13616952165476
N          141.76284931368838       -7.32830374870668        2.42645724689469
C          141.17027034022829       -6.98676894977067        1.28691749528215
C          141.14090191549974       -5.68516974738160        0.81171419388940
C          142.98950238264882       -2.66337967563426        0.81969357143513
C          144.26659928503585       -3.34532272122142        0.93109216569375
C          145.21385301507866       -2.43215174855951        0.63437039689153
N          143.18094773230644       -1.37164479344235        0.43612580601246
C          144.51529440349341       -1.19939830299968        0.32972353522503
C          145.17980020122320        0.00038207646224        0.01061940865832
C          144.55561489834912        1.22040343170594       -0.31083373797803
C          145.20155803740735        2.44476301732388       -0.62096051214592
C          144.23650071683269        3.36885641644355       -0.91485038749723
C          142.97152135330865        2.73001997868897       -0.80627288502390
N          143.21423632323459        1.43812056381959       -0.42417069694456
C          141.71385081792758        3.29669677455220       -1.04722055292505
C          141.70400792960282        4.70842805106736       -1.50060776495066
C          141.07507465782041        5.70198792477348       -0.75097725100657
C          141.09528959750236        7.00953594633642       -1.20970135884339
N          141.68618015299580        7.36989636524413       -2.34446974202259
C          142.28393454021867        6.42848176892854       -3.06744795351425
C          142.32222379721995        5.09565774177275       -2.68900946318523
C          140.48597662320765        2.64944953325181       -0.90366875102679
C          139.21292527376491        3.25030871714955       -1.25840259676342
C          138.26586335253469        2.33340426730267       -0.97176974482661
C          138.95995134208300        1.17584591818826       -0.44464043356824
N          140.29198060655870        1.38573184816348       -0.43473183877334
H          137.21293905986067       -2.41407633828187        1.11704552309775
H          139.09620052304263       -4.21620055142244        1.69424071827289
H          140.97399850161980       -0.75180876522477        0.17807697564307
H          142.87052404532363       -4.29936963988572        3.35832788249461
H          142.82931181768981       -6.68393283607152        4.06329734352149
H          140.69703112871247       -7.78876604908289        0.72798406248663
H          140.65547331557798       -5.45511077253231       -0.12932974560703
H          144.39875252260117       -4.38298616483581        1.19083215400120
H          146.28415451630335       -2.55767548430337        0.61720293916871
H          146.26893568315523        2.59356143601862       -0.61969499214112
H          144.38659805025432        4.40288413058544       -1.17868706757191
H          142.49581875150849        0.74222180010494       -0.25422614980987
H          140.59024961981422        5.45560620627709        0.18609911037744
H          140.61668152567066        7.80125194614056       -0.64080496655722
H          142.75416872543673        6.75317055952696       -3.99102639777736
H          142.81053911222972        4.36053706747268       -3.31765842376995
H          139.08431262227680        4.23176033168212       -1.68505872789395
H          137.19949788558253        2.40504449304730       -1.11037763508046
