126
 energy: -240.641831495170 gnorm: 0.000621595463 xtb: 6.5.1 (b24c23e)
Cu          18.98589169597498       -0.05874039395123        0.04541365544680
C           15.57710299428650       -0.12707976341419        0.07484970074491
C           16.21327301305172       -0.19070679803431        1.30528352029588
C           15.53996270044721       -0.26029203052316        2.57089537584080
C           16.49930221718642       -0.26272517509952        3.52890621837642
C           17.76872427390282       -0.20178630571416        2.85560767203415
N           17.56357415316729       -0.15856735101678        1.50722238757556
C           19.01189464216039       -0.13478128511304        3.48811500976119
C           20.24339382876557       -0.03613405178003        2.83709842493068
C           21.51622705792967        0.02169128853052        3.49713245362798
C           22.46367293000028        0.06536715842264        2.52713526101367
N           20.43807180619837       -0.03231490632450        1.48114384746091
C           21.78279441135131        0.01861128334926        1.26886093460234
C           22.42524138802718       -0.01475403295656        0.01784313635629
C           21.76122998548520       -0.05604669363816       -1.22154042734535
C           22.41831373159253       -0.14814785956057       -2.48977346396771
C           21.45381050083949       -0.11901069449794       -3.44353968088643
C           20.19508766362689       -0.01086419299385       -2.76313314219583
C           18.95096867420782        0.04875859375007       -3.39645976259982
C           18.94282498925453        0.11648821838212       -4.87728712613012
C           18.31483755408772       -0.87717659638633       -5.63321077296708
C           18.30644167642024       -0.80397408051143       -7.01392825731240
C           18.92285815081257        0.26572277778254       -7.66605957383744
C           18.88362212311053        0.30248956528872       -9.14724112556720
O           19.50455589547967        1.36882212538561       -9.67478224422871
O           18.35111694192702       -0.53120628404942       -9.83504783582525
C           19.55215957726697        1.26025088983025       -6.91651076789208
C           19.56247357880026        1.18267632957485       -5.53504445248377
C           17.71631230713652        0.04937100268745       -2.74297539623751
C           16.43450037762544        0.14852855740439       -3.38768861037705
C           15.49305740528538        0.08624711303536       -2.41399232039869
C           16.19020737645093       -0.03552925200843       -1.16553467662712
N           17.53691659838514       -0.04440900800464       -1.39330624330137
N           20.41321258731618        0.00485927959181       -1.41124522140389
C           19.02236083565362       -0.17559799684550        4.97157419856368
C           18.57484993937507       -1.31479065369768        5.64563397078302
C           18.58464160716528       -1.35727542321266        7.02757629594795
C           19.03755452398311       -0.25934562069157        7.76162498990977
C           19.02696930683994       -0.35189446703539        9.24092318882688
O           19.48182376523495        0.75305937542922        9.85172191255892
O           18.65014532949610       -1.31447206004651        9.86002556384092
C           19.48240235251416        0.88176818842207        7.09321192395230
C           19.47595388803944        0.92007542675048        5.70965817346051
H           14.49210228022162       -0.13633349026310        0.08428744519806
H           14.46920615788864       -0.29492512245648        2.69588058917728
H           16.36656858365933       -0.28986130063612        4.59846539476322
H           21.66441550209144        0.01964414499929        4.56477615294631
H           23.53213074394499        0.12471377322912        2.64820042068076
H           23.48261951727163       -0.23840049806699       -2.62729480969718
H           21.57932942404216       -0.18587256109229       -4.51203117683403
H           17.84787711903800       -1.71634091603674       -5.13022938191432
H           17.82416052232656       -1.57387798978735       -7.60619031704492
H           19.43360225570632        1.31787951313285      -10.64181037990053
H           20.03007912270461        2.09346215281654       -7.41805518860543
H           20.04010868411109        1.96250349213482       -4.95252503969465
H           16.28127667506911        0.26328895907004       -4.44860586013396
H           14.42013166441984        0.12675921226950       -2.51667962425567
H           18.23347808722824       -2.17202406038143        5.07651849076129
H           18.24394897072397       -2.24029458168050        7.55707991321004
H           19.44169350877261        0.61164317585098       10.81150336684153
H           19.83066257569750        1.73761474394694        7.65926657060444
H           19.81031581226498        1.81134489089560        5.19069788887668
Cu          29.90653710246818       -0.05312865318845       -0.05189035918173
C           33.31532025858885       -0.11761969252642       -0.08902019156292
C           32.67914126428030       -0.03894432928482       -1.31857909536001
C           33.35245209215788        0.03786624930726       -2.58377174329385
C           32.39311319954948        0.14591839091043       -3.53567306954101
C           31.12368900397281        0.12879349290416       -2.85984308515911
N           31.32883814778535        0.01626300796988       -1.51546433174670
C           29.88051491791654        0.26828680951693       -3.48040500621942
C           28.64902455936311        0.29123467013119       -2.82233416646208
C           27.37618771495089        0.42477344819036       -3.47129014322314
C           26.42874843576277        0.35632575921140       -2.50272051845856
N           28.45435869463552        0.13867530643959       -1.47498252922231
C           27.10963496521743        0.16478849710478       -1.25823777911944
C           26.46718604010271       -0.01260918478665       -0.01941534475702
C           27.13120700952373       -0.19654301583202        1.20693274120833
C           26.47412651141102       -0.43426632770001        2.45608575655953
C           27.43863252747237       -0.51530308522860        3.40684739882731
C           28.69735188622549       -0.32942429056507        2.74344563168309
C           29.94146974854323       -0.34322708206731        3.37942462023882
C           29.94961461379341       -0.44670313878931        4.85818351992618
C           30.57759400196060       -1.52091034496619        5.49448398720036
C           30.58598557296247       -1.60740911891989        6.87443232975414
C           29.96957227829889       -0.62004305142479        7.64556013975818
C           30.00879811381435       -0.75432276127520        9.12110103351295
O           29.38786883083376        0.24406876639397        9.76808161235306
O           30.54129494662852       -1.66177311478989        9.70818539652931
C           29.34027974388972        0.45428696071774        7.01569099415899
C           29.32997022940127        0.53652982568358        5.63449476330223
C           31.17611988619261       -0.26726454704255        2.73036119698610
C           32.45793267753595       -0.24311563067181        3.38220335112388
C           33.39937207748250       -0.19270718009032        2.40781641212745
C           32.70221707421640       -0.16970667544919        1.15364801750063
N           31.35550737607227       -0.20478845802151        1.37887774946221
N           28.47922751500819       -0.15792015498114        1.40238678378121
C           29.86999911823388        0.39877351405695       -4.95867096216353
C           30.31754675688394       -0.65505679842921       -5.75961129364431
C           30.30763018452623       -0.53794395973281       -7.13723197077188
C           29.85486279699256        0.63736664328987       -7.73975740162110
C           29.86667326670676        0.71663705733764       -9.21972753001525
O           29.41000618182690        1.88374449466237       -9.69926377230060
O           30.24346786285343       -0.16798431604719       -9.94554428834463
C           29.40990534040571        1.69373883230697       -6.94421762906209
C           29.41631798092597        1.57221011117156       -5.56548429877097
H           34.40032034556058       -0.12572979460162       -0.09946486658634
H           34.42320917989222        0.01787766666286       -2.71191169069191
H           32.52584781144871        0.24230733542932       -4.60122483482572
H           27.22799283425457        0.54583220724000       -4.53204850942770
H           25.36029052823714        0.42924002959055       -2.61612585801884
H           25.40982068472501       -0.53976988266549        2.58228179693787
H           27.31311882527728       -0.70492344434556        4.46050249953799
H           31.04455120782365       -2.29647966234924        4.89809303586469
H           31.06825982292540       -2.44047529645157        7.37396552107388
H           29.45881454923077        0.08195413006621       10.72278496110324
H           28.86236281646040        1.22410868269844        7.60996750832043
H           28.85234184231815        1.37832934231954        5.14578286277392
H           32.61115666724368       -0.25145754651198        4.44927668353651
H           34.47229822692040       -0.16431159087047        2.51448420979641
H           30.65914520501330       -1.57210886180633       -5.29313996060525
H           30.64871315823447       -1.35383160148324       -7.76503331509501
H           29.45018565420886        1.85367407168450      -10.66892934981781
H           29.06139083327652        2.60904620276681       -7.40782780592437
H           29.08185505999519        2.39765012965018       -4.94719757951358
C           23.83743561737623       -0.01567708089245        0.00581534323132
C           25.05499205912703       -0.01490869610251       -0.00757074688852
