312
 energy: -490.089379273635 gnorm: 0.000747634005 xtb: 6.5.1 (b24c23e)
Co          45.69210496181831        0.03587475214970       -0.07094542476980
C           42.30542543855546        0.13817877760954       -0.20838581755125
C           42.96303685246155        1.14608624576073        0.46240387638508
C           42.29334899007557        2.22818284656846        1.11849533461995
C           43.25711332486462        3.06599319970374        1.56661513701806
C           44.51307798393080        2.49802358471229        1.17328561123171
N           44.32497666831122        1.29997307995241        0.53176164533751
C           45.72610789335864        3.14891456003934        1.32658185906220
C           45.74277395415827        4.50871659778361        1.93479886993823
C           45.53593322945779        5.63346309944000        1.13096108018869
C           45.29224537649343        5.46889851632687       -0.34556525416685
C           45.55616267036176        6.89785816293605        1.70799582444857
C           45.77733828391103        7.05770075939535        3.07190572448266
C           45.81745107983950        8.43266276553925        3.68221891375818
C           45.98250267303884        5.93098393768127        3.86183618927117
C           45.96780696657686        4.65706535811405        3.30632922300986
C           46.19239754559873        3.44208169492239        4.16636949350188
C           46.92190123031293        2.58901619873677        0.91339331481137
C           48.18308836537445        3.25795843132816        1.02124794992661
C           49.12815221247413        2.37232346796453        0.62615417500539
N           47.08976550342766        1.31226852571483        0.42703980235404
C           48.44152933516398        1.16604911069511        0.28477955026180
C           49.10240748005435       -0.01734620395446       -0.04941081211987
C           48.41013217479392       -1.18897656417213       -0.36121010212204
C           49.06222383314939       -2.42836707709582       -0.64667234579984
C           48.09119523164892       -3.30768370501175       -0.98957328742091
C           46.85025239163207       -2.59648937304427       -0.92260740878066
N           47.05493555945101       -1.30302937852282       -0.49706987445073
C           45.64612619592120       -3.12805213950279       -1.34806829050253
C           45.62334648143928       -4.51538237872401       -1.89038531051986
C           45.89293422798933       -4.74038722495557       -3.24365376065392
C           46.20702427967221       -3.58080384735779       -4.15093401641454
C           45.86989674017507       -6.03925372841103       -3.73705504328436
C           45.58471297188207       -7.11616608461723       -2.90324643094854
C           45.54698386174433       -8.51488012456984       -3.45719493003289
C           45.31707544889536       -6.87996899452453       -1.55915255796158
C           45.33351307810815       -5.58889548449645       -1.04384867393934
C           45.04152246353625       -5.34047244969550        0.41197269119875
C           44.46290159325721       -2.40883654021395       -1.30175075976175
C           43.20975982704626       -2.91693422688850       -1.77697376914438
C           42.27179070271499       -1.99130590674589       -1.46880795223165
C           42.95290921768689       -0.92448728736589       -0.79934044080619
N           44.30186350442901       -1.17042895843641       -0.73477508816811
H           41.22368712889322        0.17538471721247       -0.26085110429496
H           41.22233770101643        2.31768940163287        1.20825999569274
H           43.14885690312023        3.99392715994857        2.10481242724674
H           44.35649309662903        4.93272034981631       -0.51638506451860
H           46.09670025058430        4.88938590634912       -0.80196744885239
H           45.23329959647360        6.43777105974692       -0.84053790950774
H           45.39597528178543        7.77109319650837        1.08405668785880
H           45.45613008024105        8.41163575758051        4.71071403907064
H           46.84451393658546        8.80511103534317        3.69126474018002
H           45.20839136600985        9.13113337059786        3.10800007618810
H           46.15557116164766        6.04652044470260        4.92680404491058
H           47.09848032728625        2.91989285099404        3.85284316760667
H           46.29603230368608        3.72067688985046        5.21459672547498
H           45.35646148310575        2.74717451612931        4.06837752589864
H           48.30997688275521        4.27273133073938        1.36215707910740
H           50.19721604581134        2.50217374340307        0.57566813062646
H           50.12735859311746       -2.58539035097764       -0.59036138536001
H           48.18839498375620       -4.34230569335420       -1.27625588073141
H           45.40362918811185       -2.84277734823277       -4.11692597781207
H           46.33286903651734       -3.91503861513902       -5.18030523461617
H           47.12655667807937       -3.08780783045091       -3.82933145204034
H           46.07922936332007       -6.21481027091250       -4.78720846636242
H           46.30709637002732       -8.64654802466774       -4.22793105979251
H           45.71164278197336       -9.25052539108900       -2.66978964974347
H           44.57115876627005       -8.71022174716636       -3.90790988241464
H           45.09450820410409       -7.71358472854400       -0.90109442322923
H           44.12751385488619       -4.75262087817154        0.51823400273210
H           45.85521675243016       -4.77768084645598        0.87282996159794
H           44.91566812668335       -6.27972558490894        0.94978170605978
H           43.08505097650985       -3.86513614325511       -2.27481434662232
H           41.20974516655674       -2.01488095688106       -1.65479635363649
Co          93.65513153068333        0.01065965175650       -0.11666536644714
C           97.03507209208138        0.01957400757784       -0.27518885168849
C           96.37308472867910       -1.17270594906341       -0.47574254648291
C           97.03171717707382       -2.41881470957488       -0.72782033568481
C           96.06234725324138       -3.32080836802806       -1.00961261165015
C           94.81360105838610       -2.62012479324336       -0.94140984788834
N           95.01113131449641       -1.31623156570685       -0.56275036357910
C           93.60604918261825       -3.16069303555843       -1.35278285408245
C           93.58056113260916       -4.55322708143339       -1.88075025078129
C           93.86968189736409       -4.79640282531733       -3.22635917408767
C           94.20979266254875       -3.65128726344365       -4.14260629748745
C           93.84230361043802       -6.10111226012882       -3.70557462007337
C           93.53356863799935       -7.16500808205138       -2.86477639352205
C           93.48813393670326       -8.57215193432568       -3.39635625892183
C           93.24647195014336       -6.91062398694578       -1.52721832341376
C           93.26628441958258       -5.61444713834179       -1.02667098129479
C           92.95316399588013       -5.34653298673013        0.42125838189288
C           92.42429027057968       -2.44141977743800       -1.30691337459967
C           91.16971062220657       -2.94359876043780       -1.77954468527189
C           90.23001379752598       -2.03033862133306       -1.43603881876908
N           92.25941546652695       -1.21026277610096       -0.71476786355374
C           90.91211960464517       -0.97945107010556       -0.74775294180444
C           90.25311394952286        0.04804875185011       -0.06945985214989
C           90.95116583798148        1.04368488105021        0.61748912775240
C           90.31196722727417        2.08164096769171        1.36377218127720
C           91.28584688612548        2.94303004596558        1.74410856636482
C           92.51616163604055        2.43053818813575        1.22074260608876
N           92.30391684446673        1.23432531703971        0.57323750493874
C           93.71056695932198        3.12887298874083        1.24751188634658
C           93.73611912422419        4.49086813343059        1.84996147940605
C           93.39580260143883        5.60244583444346        1.07339267673414
C           93.00197539320637        5.42115011434279       -0.36829628415265
C           93.42251143014391        6.86856517139910        1.64570147554541
C           93.78005819930459        7.04334641855689        2.97892117011256
C           93.82207213760468        8.42255109603071        3.57943228482583
C           94.11693026993706        5.93011407209199        3.74156124847450
C           94.09881517469037        4.65432041705062        3.18968371784462
C           94.46593684103487        3.45389709611612        4.02076121796349
C           94.88081914104816        2.60797668515567        0.71858016761376
C           96.12744537555925        3.31488939453253        0.69412740358760
C           97.06342129370945        2.44081165927227        0.25528005714442
C           96.38806937987992        1.20067907086847        0.01751046600177
N           95.04243785751171        1.32626548037425        0.25806354302557
H           98.11698583149786        0.02535950061104       -0.33554801718339
H           98.10024994211534       -2.56138037836652       -0.69543534018026
H           96.16335810259419       -4.36498109521689       -1.25867270000771
H           95.15405313961317       -3.19426536092226       -3.84044952981013
H           93.43721897578382       -2.88237351387818       -4.09466376166080
H           94.30296222146845       -3.99161400926715       -5.17337500120394
H           94.06574423492056       -6.28968245634896       -4.75056615201228
H           93.83462579438437       -9.28163157453410       -2.64424374565482
H           92.46198509303589       -8.83597166980670       -3.66288348560810
H           94.10753315804388       -8.67209996518472       -4.28783245418823
H           93.00501944994147       -7.73498798483999       -0.86420431683274
H           92.04687483047557       -4.74361303741014        0.50580673039072
H           92.80330720225190       -6.27816319706647        0.96602080193367
H           93.76752086780762       -4.79176791778343        0.89053757097086
H           91.04239686954452       -3.87960494076553       -2.29904078200499
H           89.16612341238675       -2.05792699385507       -1.60855565572574
H           89.25189405796741        2.13363203439421        1.55340680444860
H           91.19606506538931        3.85369727104277        2.31403455189691
H           93.77965046906640        4.88026141161449       -0.91030179970024
H           92.84208529441865        6.38424011400062       -0.85207752556750
H           92.08083090073251        4.83911933666838       -0.43760808557855
H           93.15871031129767        7.73176663888709        1.04345630762740
H           93.05063831492863        9.05842888997470        3.14413478973922
H           93.67818631808395        8.38161555136508        4.65925726266093
H           94.79238662697064        8.88438490910863        3.38246820672911
H           94.39620281298970        6.05669447967512        4.78247050968665
H           95.37762979802403        2.99292248971366        3.63489848164181
H           93.67177239570414        2.70608497656372        3.98158150621787
H           94.63181800094999        3.73605168938423        5.06008150508183
H           96.25064328557427        4.34494358352507        0.98804149908931
H           98.12129058144247        2.59601029738418        0.11399030537746
C           54.30307928374578       -0.06135290130087       -0.05118705120131
C           53.07443150299488       -0.05295294818840       -0.05559021047517
C           51.73025388955259       -0.04480752392410       -0.05538602088927
C           50.50635910200023       -0.03375336939873       -0.05261885565959
C           55.64695329781417       -0.06637610997836       -0.04610565800481
C           56.87134333497239       -0.06796744712376       -0.04028986745905
C           70.28094272037858        0.03852527675315       -0.03964903053366
C           69.05107141549632        0.03365071408701       -0.04037181832274
C           67.70948378112629        0.02438612043541       -0.04074466770199
C           66.48409770336258        0.01314853466058       -0.03997995741973
C           71.62257800076594        0.03846865604149       -0.03711407662029
C           72.84789968028645        0.03456552359971       -0.03520213377802
C           86.28125467276205        0.09224433146164       -0.05096749058021
C           85.05266087587543        0.09751682465674       -0.04586381361286
C           83.70858343725995        0.09135533319163       -0.03781819406431
C           82.48443898630059        0.07871459382669       -0.03404678975211
C           87.62557602772495        0.08331829074036       -0.05696115838248
C           88.84931971290372        0.06828027144112       -0.06102369863875
Co          61.67849084339421       -0.02055766657010       -0.04004825171918
C           58.27374761235780       -0.06770030540513       -0.03694804499450
C           58.95149919326521        0.36078147554468        1.10826324898115
C           58.29189667329953        0.80777861756407        2.29441848126862
C           59.24838629510729        0.93175595609749        3.24691583866279
C           60.48765824847665        0.56209054857410        2.63447733026810
N           60.29952073802874        0.25862650876638        1.30689265931071
C           61.67383828246926        0.39650154614044        3.33202894955989
C           61.67209073341864        0.58215325737953        4.80942614737737
C           61.99873277416921        1.82615168492938        5.35693953367200
C           62.34875246666304        2.97745535313103        4.45245855460776
C           61.99714697707695        1.98500180616868        6.73756341641470
C           61.67665998195075        0.92451329308673        7.57916265538777
C           61.70187123475002        1.10487136970591        9.07283286652880
C           61.35407987137659       -0.30862168011125        7.02248125780211
C           61.34717163195234       -0.49052163588629        5.64447611010660
C           60.99377826684273       -1.82704601022341        5.04862999096426
C           62.86287417290801        0.06838170581298        2.70331479812696
C           64.10509269875224       -0.10483999154530        3.39303605271408
C           65.06606741433451       -0.20677285787326        2.44299484201606
N           63.05476308483448        0.01519483741575        1.34149922491981
C           64.40544519257141       -0.10041019698917        1.18031671660167
C           65.08423868071230       -0.00568987159482       -0.03909687141413
C           64.40106617435025        0.06687536749080       -1.25777344387928
C           65.05571416790826        0.18561896107142       -2.52233703380551
C           64.09698429152593        0.04424857797520       -3.46997597004447
C           62.86196874776518       -0.16174845555362       -2.77667563555323
N           63.05534307094015       -0.09860444054015       -1.41602756091154
C           61.67957881115539       -0.52417309692752       -3.40005189568280
C           61.67993163660096       -0.72213948978689       -4.87580091583174
C           61.31579602269358        0.33162285383878       -5.71885595097289
C           60.91661090923917        1.66012804074825       -5.13397666144669
C           61.32639891924926        0.13865658106958       -7.09535458996795
C           61.69099108739996       -1.08688905982818       -7.64272107243078
C           61.71992885828056       -1.27851084418248       -9.13492084043800
C           62.04988603406059       -2.12864564348377       -6.79321739876600
C           62.04872594711946       -1.95839816044479       -5.41397152020542
C           62.44027163492363       -3.08924326919838       -4.50074826281034
C           60.49732494045988       -0.70257235428489       -2.69979366640593
C           59.26204721393923       -1.08911821958833       -3.31021998406258
C           58.30269246972397       -0.95961855052512       -2.36162197077529
C           58.95710069977108       -0.49681000262619       -1.17859521364311
N           60.30561120052818       -0.39413100955740       -1.37327445311305
H           57.23114497002265        0.98266100061959        2.37546754041868
H           59.14010147895593        1.23307069088427        4.27630675771755
H           63.25511768198167        2.75152669637931        3.88732077908478
H           62.51508911188667        3.88758580171039        5.02783979746939
H           61.54511085607121        3.15662168973211        3.73607448795650
H           62.24895604176899        2.95072498310185        7.16334381951430
H           62.71132029898725        0.92732850780091        9.45113494050591
H           61.02763013306468        0.40117930770912        9.56133620618939
H           61.41207016039510        2.11983035259566        9.34608315610104
H           61.10309646788802       -1.14149720401678        7.67107254729740
H           60.08576284896147       -1.74455763425798        4.44801071693434
H           61.79528703412930       -2.17603890188541        4.39509104303842
H           60.82897353959206       -2.56960590797200        5.82872811443002
H           64.21191543618056       -0.12726253776429        4.46547015439942
H           66.12965331256144       -0.33063859324138        2.56834756615668
H           66.11448587706657        0.34339850764779       -2.65063405458628
H           64.20123283434069        0.06331260674816       -4.54278185427700
H           60.00486271576464        1.55368400028600       -4.54279083296012
H           60.73784921306555        2.39324348501974       -5.91991996636349
H           61.70008191454045        2.03646149049235       -4.47384987573077
H           61.04513769906468        0.95690078265251       -7.75013589600409
H           61.45911491337984       -2.30356227234779       -9.39959258834766
H           62.72355025338344       -1.07526618830246       -9.51579754311985
H           61.02532867504434       -0.59845926161282       -9.62834153462939
H           62.33443312131041       -3.08847976014000       -7.21168463772600
H           62.62680495862900       -4.00060144761242       -5.06790990357200
H           61.64933808284672       -3.28297911268671       -3.77410978606130
H           63.34556478134797       -2.83144199441095       -3.94760591841523
H           59.15815634806281       -1.40234993996631       -4.33644805474738
H           57.24319749936880       -1.14173279457739       -2.44284638600634
Co          77.66520508483787       -0.01790120098169       -0.02491951943765
C           74.24825964973253        0.02397391216610       -0.03240523570256
C           74.92723185147061        0.33130009774083        1.15033287365615
C           74.25743087114157        0.66341703536837        2.36821530401147
C           75.21400894456295        0.75612769104223        3.32273146478035
C           76.46300389898433        0.48386701192310        2.67900340296251
N           76.27851254717199        0.26040199574823        1.33365061331495
C           77.66236392190805        0.37283996750907        3.36059545171647
C           77.65750949853847        0.51922203963671        4.84278692859979
C           77.86293429144237        1.77498748441316        5.42134691725530
C           78.09588093048593        2.97714885186707        4.54570225440853
C           77.84824069427891        1.89846450476411        6.80559853759821
C           77.63230686311027        0.79149261627432        7.62011903265985
C           77.63688389909011        0.93619956857878        9.11789069550843
C           77.43180105982340       -0.45331636045385        7.03263786336659
C           77.44098867382432       -0.60069243244743        5.65061118547772
C           77.21732951653729       -1.94950083941276        5.02069513140962
C           78.86591807461298        0.13650162216598        2.71720283158907
C           80.11719454906248        0.03225549076842        3.40365145089188
C           81.07716791919660       -0.04177852232895        2.45057112476578
N           79.05227147524292        0.08927858017972        1.35535731974256
C           80.40627719640456        0.01127933197999        1.19020959508699
C           81.08150640394101        0.05728770549375       -0.03203752386461
C           80.40173261623956        0.06667002364286       -1.25247206254765
C           81.06864522581753        0.10767029493830       -2.51559095284366
C           80.11156779988086       -0.03612992231270       -3.46343961925459
C           78.86524062362375       -0.16075000251020       -2.77144319835485
N           79.05022408013599       -0.05830736648246       -1.41252713414676
C           77.66698038415564       -0.44264626447746       -3.40638728683815
C           77.66745631122784       -0.64398609639635       -4.88211119097870
C           77.42967533416287        0.43932763271562       -5.73283524504589
C           77.17550718560629        1.80649219086590       -5.15629984960884
C           77.42791743905234        0.23871865603175       -7.10815662237028
C           77.65663828167652       -1.02317453344722       -7.64697022534890
C           77.66957150997413       -1.22447047303864       -9.13813101524688
C           77.89310309381830       -2.09330240163400       -6.79007117570359
C           77.90091456315841       -1.91635818309730       -5.41157837440551
C           78.15634880051267       -3.07858794265841       -4.48953845877585
C           76.46676746289147       -0.53592390852261       -2.72372600417426
C           75.21731743888293       -0.81642033475957       -3.36300717372388
C           74.25733126109415       -0.67167648175529       -2.41827004759701
C           74.92644881778297       -0.30986488376233       -1.20869712717445
N           76.27864958193791       -0.25921281934331       -1.38875199249204
H           73.19140301273208        0.79189756435805        2.46461679791746
H           75.10118232197497        0.97817525149487        4.37151094220016
H           79.00358811355233        2.84361992540746        3.95395846913976
H           78.20015394110207        3.88094048217914        5.14519823255785
H           77.26279233891296        3.10988619207871        3.85301190649216
H           78.00506540404852        2.87336053849036        7.25547060803918
H           78.65473058207223        0.82456378305115        9.49882458762167
H           77.01445795082940        0.17222950871694        9.58424058413473
H           77.27065469890199        1.91953494614482        9.41397592908835
H           77.26281688162788       -1.32227464433893        7.66010098853491
H           76.31995435477289       -1.93235618441626        4.39918695778917
H           78.06094387366807       -2.21445314103268        4.38077681702288
H           77.09970267537412       -2.71998078540136        5.78198320531402
H           80.22911174264060        0.02959768724672        4.47578467948551
H           82.14557543500314       -0.11932074124846        2.57176249917283
H           82.13340017451891        0.21985653191252       -2.64157618928125
H           80.22243463771555       -0.06629437283646       -4.53523917634431
H           76.27147712187170        1.79648724953679       -4.54429814940541
H           77.05279547416862        2.54568560498679       -5.94723104772076
H           78.00696812489247        2.11037817934987       -4.51784096902494
H           77.24279536413643        1.07918008707077       -7.76901035680057
H           77.33614346018160       -2.22965763984986       -9.39719968073251
H           78.68418237304834       -1.09413318813551       -9.52175725496759
H           77.02391196043314       -0.49927363822602       -9.63388243039097
H           78.07183748616428       -3.08123839789667       -7.20168923259634
H           78.27642990808953       -4.00338109443547       -5.05294111676657
H           77.32655738336969       -3.19867929159996       -3.79063576948902
H           79.06210912715768       -2.90533673589924       -3.90515437297704
H           75.10648692357506       -1.07752890656327       -4.40294822147379
H           73.19005248092124       -0.78855001133521       -2.51551127875560
