242
 energy: -415.991421229530 gnorm: 0.000590986005 xtb: 6.5.1 (b24c23e)
Ni          41.80154216024046        0.44615135201594        0.31033737643276
C           38.40987981414061        0.38604706098362        0.39995456732083
C           39.08171805076081       -0.81599902403133        0.47875984801498
C           38.42513828197215       -2.07927595784391        0.62017240984643
C           39.39024634269595       -3.02668741621531        0.56079440061167
C           40.63585056719985       -2.34115120223277        0.37780759004863
N           40.43924010254162       -0.98236740000811        0.36213167282061
C           41.85627005723936       -2.98379036731796        0.21468005072967
C           41.88188916917241       -4.46501704671325        0.15354794327672
C           41.25450742135168       -5.13878400300363       -0.82174028257657
C           41.25309271042007       -6.64363738725065       -0.89353035280091
N           42.29864891801655       -7.21580972430727       -0.04091854517041
C           42.76743712047931       -6.52559343395299        1.04654798456868
C           42.62358069016435       -5.19448539927048        1.17223627945305
C           43.05731117363896       -2.29324640124080        0.12038541288997
C           44.32640382072315       -2.93066004762277       -0.05776361775142
C           45.26519921486858       -1.95532436181259       -0.00890025888298
N           43.21531785847985       -0.93009179253376        0.23334762580955
C           44.56686384108858       -0.72426289883681        0.18158583782969
C           45.21342482454236        0.50442685844060        0.33255155293403
C           44.52258675157047        1.71316827935879        0.44234542284227
C           45.17608646445800        2.97390550428849        0.59553650056605
C           44.20573805517302        3.91884858394882        0.57754957954555
C           42.96129590013805        3.23169208622079        0.41146160877107
N           43.16607984713681        1.87152391072610        0.35592197269271
C           41.73622316418743        3.87717978462841        0.30618955574394
C           41.71585681547036        5.35989947617810        0.31139711358902
C           41.09873288869797        6.05080402710746        1.28121098240136
C           41.05466522223502        7.55655346082207        1.30100605331439
N           42.04577048079738        8.12889352758911        0.38580519934100
C           42.50641628524617        7.41075359789497       -0.68644327892102
C           42.40482503594677        6.07153433683443       -0.75546261463478
C           40.53408735960948        3.18837944999159        0.21317593452239
C           39.25641578441738        3.82430353353571        0.07791800649916
C           38.32340136468066        2.84438407983044        0.12056546280734
C           39.03190164459467        1.60968095955106        0.26340219784246
N           40.38701747250085        1.82515834002863        0.28974141556118
H           37.32677262580670        0.36691022816705        0.43565058069255
H           37.36132855417274       -2.20440191033732        0.74613055334059
H           39.28270977107033       -4.09626512953876        0.63975870963052
H           40.70015473753773       -4.62990813497228       -1.60167914201186
H           41.43816673421067       -6.97358059335932       -1.92470672322889
H           40.26321788413954       -7.03888301756088       -0.59718179001229
H           42.24040051825506       -8.21897577648400        0.05825156274447
H           43.33532181773595       -7.12209179593015        1.75343416588172
H           43.04354868717938       -4.65858585491075        2.01148488883136
H           44.46989207921020       -3.98943123202535       -0.19908410529238
H           46.33600446123383       -2.04438983681658       -0.09709807280783
H           46.24148058731918        3.10265800344090        0.69872457111372
H           44.31147095380738        4.98733992901282        0.67113704808221
H           40.58475597968296        5.55520856918591        2.09657190248263
H           41.27173303563266        7.92789184972687        2.31188145194371
H           40.04189379608373        7.91220333600437        1.03371634544791
H           41.94944819846440        9.12465392989613        0.24955405337641
H           43.03215469487733        7.99686358214074       -1.43348353789744
H           42.82007087259210        5.51627406212185       -1.58438380927967
H           39.10645033661411        4.88548033865843       -0.03699545884834
H           37.25007658781250        2.92930313138337        0.05731914812522
Ni          82.04482157185313        0.28872725233323        0.25083810618109
C           85.43262115552167        0.33661830762751        0.21027614548928
C           84.77076887749536        1.50479715603252        0.52885029892325
C           85.43202474632476        2.72252865675434        0.88507219935350
C           84.46820123452285        3.66511435548934        1.01252206737250
C           83.21941175512926        3.02619867478578        0.71689890972032
N           83.41206328775544        1.68937302316126        0.46928227822327
C           82.00511592165901        3.69371449489998        0.61796036224513
C           81.97653981902481        5.16589986263646        0.78396506008322
C           82.66074649754530        5.98276745598427       -0.03085993226852
C           82.65566413731237        7.48013216012957        0.13557870033805
N           81.54820585879911        7.91448858932225        0.99127985948775
C           81.01460836561549        7.06406577961860        1.92483068199898
C           81.16287612754024        5.72967383775028        1.85195798131369
C           80.80949630356658        3.03054847637870        0.37056668487079
C           79.55177282836321        3.69182411218342        0.19992593915256
C           78.60909922097545        2.72329830572841        0.10336180657014
N           80.64314641219316        1.66503804459888        0.32591990049180
C           79.29325306146119        1.47383944564921        0.20702624262292
C           78.63841841077563        0.24232248830457        0.29244717529184
C           79.32607969094887       -0.97149885445679        0.35253759606764
C           78.67725758072356       -2.23869499624402        0.46600320782649
C           79.64338635200583       -3.18173095875506        0.34947092147384
C           80.88025578448740       -2.48705189362188        0.15838649637548
N           80.67791585804378       -1.12653370954373        0.20419279037446
C           82.09113778948662       -3.11755444442495       -0.09983330084609
C           82.10847630858598       -4.59265874848668       -0.24134143803366
C           82.82877474171346       -5.36896106315701        0.58208670138567
C           82.87612255386657       -6.86856924530106        0.44742700008216
N           81.79213476873544       -7.35992673640888       -0.40760871061843
C           81.21723492388411       -6.54468999168540       -1.34725376979004
C           81.30832470866167       -5.20413751057797       -1.29266284296449
C           83.28403821136492       -2.41658940661627       -0.22631754720131
C           84.54341880937592       -3.02288470690406       -0.54544148860210
C           85.48251713972694       -2.05194259533104       -0.45150210635159
C           84.79574240334544       -0.85039307264739       -0.08856392863990
N           83.44448262002867       -1.07287664681776        0.00554598337870
H           86.51626592532119        0.35168310729617        0.19650750070454
H           86.49766290402233        2.82348830770294        1.01727813986583
H           84.57997291279180        4.70255652105683        1.28285161359457
H           83.26644524690684        5.60173816097295       -0.84478496856875
H           82.54111989095144        7.96903060539013       -0.84123282899103
H           83.61915636569101        7.82017881383846        0.55980227547558
H           81.59159968102979        8.88959376528828        1.25001358257562
H           80.39464121098943        7.54384269349292        2.67542328698887
H           80.69232587103197        5.07011869880801        2.56716053519196
H           79.41786625125992        4.76057423318750        0.16157466081764
H           77.54373563839232        2.82999736952979       -0.02263774333347
H           77.61707073975525       -2.37215691006981        0.60992270333096
H           79.53870695834814       -4.25384082469750        0.38634258859478
H           83.42852294627505       -4.95019098664557        1.38181152903239
H           82.77090813747836       -7.34041055608394        1.43391421362566
H           83.85430515239960       -7.18378424728089        0.03821044231222
H           81.87652222959359       -8.33548941387137       -0.65381860811103
H           80.61511814607661       -7.06037138830106       -2.08852954509691
H           80.80614823927672       -4.57506122729266       -2.01375328552755
H           84.67832290678155       -4.05939140631433       -0.80869694242693
H           86.54704772548561       -2.12375119362234       -0.60922473358368
C           47.84032025883145        0.54738134577192        0.41142530168988
C           46.62022797783231        0.52685378051270        0.36823845211147
C           49.19069399099440        0.58459241602732        0.45788688836901
C           50.41016564542583        0.62353378394250        0.50797807701181
C           61.25502856209109        0.71365366706914        0.59328428859717
C           60.03321158787167        0.72373170350670        0.60340485733919
C           62.60517790795281        0.72061284141194        0.59756727257741
C           63.82675548833634        0.74089614489039        0.61647623086072
C           74.66217780230480        0.33632557106223        0.43820796195712
C           73.44640992801662        0.42898402377289        0.50329182028788
C           76.01160252760022        0.27179008129244        0.37760264517043
C           77.23107441438205        0.23627533704886        0.33097768405585
Ni          55.21984020414506        0.79679643461257        0.66248259618120
C           51.81427411560805        0.68092057252935        0.56421232288635
C           52.47514646364738        1.65652089593104       -0.18837853647838
C           51.79984123134811        2.65131232049008       -0.95806975967630
C           52.75547928463806        3.33748936771290       -1.63167367969906
C           54.01082171310607        2.74242938273933       -1.28874004905501
N           53.82911325592304        1.74300744346674       -0.35902549686902
C           55.21708432510754        3.05946178814877       -1.89929634580509
C           55.22777521984823        4.05232479727574       -2.99887358411532
C           54.52997757792055        3.85938313740460       -4.12849622453452
C           54.57112765066641        4.82986126946845       -5.27918850317527
N           55.10829735060682        6.12674940441662       -4.85932349218601
C           55.94324478742197        6.22159163671610       -3.77692363669043
C           56.02030537255714        5.26237408187013       -2.83756918992107
C           56.41827084832831        2.46313266231042       -1.53599803975968
C           57.65766051180432        2.68271522900566       -2.21567857551559
C           58.61081850632326        2.01682349469948       -1.51835418135640
N           56.60479811619940        1.63299819451063       -0.45449169938324
C           57.95129670559498        1.39509879722891       -0.41513405891377
C           58.62893920513292        0.75001600201328        0.62405671470666
C           57.95992855976129        0.16562690548434        1.70475604475320
C           58.62771915764376       -0.39260692442806        2.83596710070414
C           57.66887978186685       -0.93855428624487        3.62393085637358
C           56.41953390473707       -0.73520708884765        2.95665279236198
N           56.60719699477142       -0.00811618705646        1.80172312919732
C           55.21568994670343       -1.29394187253375        3.36605568455526
C           55.19716859385677       -2.17618958559282        4.55630385935763
C           55.91647901962959       -3.30715014224656        4.61064280863053
C           55.91991252925758       -4.20716524457600        5.81867840413464
N           54.79839713865476       -3.90301190389683        6.71146950231836
C           54.21938772955474       -2.66107693415819        6.70986722319190
C           54.35097693014060       -1.80483015541541        5.68138023260998
C           54.02187236932679       -1.07442854826815        2.68915440719844
C           52.78945803659560       -1.72685716313197        3.00924548678683
C           51.84122958880580       -1.19312696829586        2.20098049754133
C           52.49549768257903       -0.21251443752176        1.39475800257719
N           53.83671265122117       -0.17558163664738        1.66447680545948
H           50.73160045942949        2.79670483227856       -0.96911196698023
H           52.63090775867641        4.16971232749199       -2.30500330544542
H           53.95775654244824        2.95469019354188       -4.29791052307354
H           55.17862494042366        4.41650994323082       -6.10624584301599
H           53.55821918867311        4.99264871892536       -5.67193060798666
H           55.29302829345993        6.75992574128635       -5.62383019058241
H           56.47254578805731        7.16542185284834       -3.69353302899991
H           56.62708082220134        5.38833642077735       -1.95222733451543
H           57.77256842924073        3.26852455308411       -3.11328461597293
H           59.66882399916388        1.95170537190738       -1.71533896084348
H           59.69332311928124       -0.35862825070219        2.99658520392156
H           57.78857279522946       -1.43744118706732        4.57168189918161
H           56.54559950130491       -3.62402940359097        3.78708055433060
H           56.87673824238220       -4.10801906393044        6.36478815912832
H           55.83164206833877       -5.25719820572670        5.50826510929103
H           54.84774483403960       -4.37233394491704        7.60406312046546
H           53.58051298520869       -2.45664278034266        7.56308670674558
H           53.84423903726115       -0.85036414176771        5.67397911630916
H           52.67566053765797       -2.49545741468859        3.75627551356514
H           50.78887810249164       -1.42243972842340        2.15225371831907
Ni          68.64508498166400        0.82080344050334        0.73080607489370
C           65.23075004467719        0.77752329715225        0.65769539245128
C           65.90833158018232        1.62196143998914       -0.22754284499842
C           65.24126083442118        2.51807061777093       -1.11639413017409
C           66.20699228614737        3.17317361815067       -1.80551617698500
C           67.46109612506920        2.64910256700465       -1.35854148137460
N           67.26516489651196        1.71805492869809       -0.36195256332284
C           68.68469326762437        2.98407889172585       -1.92054966402787
C           68.72579301800054        3.95360439547507       -3.04161990669513
C           68.12818444481002        3.70307543274610       -4.21585472186671
C           68.21253442126427        4.65027460627953       -5.38370717313557
N           68.66512075893151        5.97782308761377       -4.95934648428278
C           69.40816143099570        6.13375310545496       -3.81852620303818
C           69.44978590149391        5.20156486936877       -2.85021260404300
C           69.88247787749751        2.41482201221238       -1.50724804265635
C           71.12978999207240        2.62796789344967       -2.17467484637287
C           72.06212436704197        1.91170330224210       -1.50093831980121
N           70.04678440760622        1.56477339299292       -0.43851414612149
C           71.38463177854572        1.27729340396387       -0.41557557666624
C           72.04671374368600        0.55578642852701        0.58046543238810
C           71.38242254671201        0.01876848301325        1.68631916803927
C           72.06240861194358       -0.56956176180070        2.79506320887826
C           71.10750245266711       -0.96353305694119        3.67226423703731
C           69.84451364238899       -0.64745243143141        3.07841646793837
N           70.02773693489776       -0.00843975957158        1.87219147502567
C           68.61969432083244       -1.01803380656485        3.61720393305578
C           68.59052556609377       -1.77451438294124        4.89187893909833
C           69.15548741025904       -2.98488283675577        5.01198908657131
C           69.14508963044156       -3.75679409649877        6.30574370302423
N           68.14614269446352       -3.22157950089637        7.23468119519134
C           67.73898731839985       -1.91586630954178        7.14635184894250
C           67.89865730438868       -1.18476233029616        6.02913785499740
C           67.41068092494636       -0.74359855333638        2.99087218666047
C           66.15157792936461       -1.24551400053993        3.44853879350519
C           65.20926789537017       -0.77801914084653        2.59444238316759
C           65.89329158814614        0.01972018323333        1.62752435073763
N           67.24214188378744        0.01612970180426        1.85591477272814
H           64.17111590181229        2.63083754384756       -1.18300767358546
H           66.09052749511225        3.93969772985073       -2.55404465360262
H           67.61427514137668        2.76815640137839       -4.40652188858853
H           68.89441663983173        4.24529103873862       -6.15496241971972
H           67.22481202795261        4.76149341814830       -5.85158381602827
H           68.88713505518348        6.59752537166975       -5.72504273292202
H           69.89136333237040        7.10063179622579       -3.72069122106446
H           69.98173417246520        5.37248696433560       -1.92517332819953
H           71.26142764755099        3.23828823126859       -3.05339556725115
H           73.11752844917103        1.82076771441991       -1.70123254676936
H           73.13392293974965       -0.64839898817826        2.88445006931048
H           71.23837376705274       -1.42879274928946        4.63541691201182
H           69.66371239641337       -3.46334202096882        4.18301153044573
H           70.14792913764548       -3.73293930702348        6.77200778140550
H           68.90119113820568       -4.81072465152860        6.11552123082994
H           68.20587136063681       -3.60878984773755        8.16527480347841
H           67.20405125632342       -1.54677792090178        8.01556177716775
H           67.52313565478828       -0.17396863268962        5.95757148228640
H           66.01821150024655       -1.88249199017145        4.30764783384121
H           64.14354906666691       -0.94002054638905        2.61135078725428
