207
 energy: -327.247243927499 gnorm: 0.000281737878 xtb: 6.5.1 (b24c23e)
Fe          33.69453924998196        0.11545025306229       -0.19791589247247
C           30.60816695206134        0.43413810017653       -1.45631039420671
C           31.15463001499871        1.53260046785771       -0.81998248553265
C           30.45253483254389        2.76218869683391       -0.60531407876003
C           31.22911165551700        3.51632208867134        0.20993968528245
C           32.43443849816013        2.77360154275084        0.43952476669936
N           32.36295955608863        1.55471850948139       -0.17579176064276
C           33.54949475853234        3.25916264538239        1.11940573092574
C           34.76637598951406        2.58970601711714        1.12235585827068
C           36.00438985427911        3.18190326890278        1.53363062221195
C           36.98794971341952        2.32133634365878        1.17215663494443
N           34.99785174168651        1.35337880157731        0.57070292953687
C           36.34773416110458        1.18300225208958        0.59251178349945
C           37.02757722576291        0.01253447992224        0.21558866146736
C           36.34988089890018       -1.19595780532679       -0.01951993665283
C           36.99251567149965       -2.47216064661301       -0.05155807178269
C           36.00975471393431       -3.40217115751158       -0.14348950587803
C           34.77055815769744       -2.68739936686910       -0.22199251955878
C           33.55325654433540       -3.27534080376028       -0.54101844613426
C           33.48876311634417       -4.75482777518259       -0.60142346840443
C           33.26277313859977       -5.41359795602089       -1.80756665130243
C           33.21719395789658       -6.80424586461840       -1.85453662196336
C           32.96266590756488       -7.50362066066103       -3.16249723551737
C           33.39551570448457       -7.53183169388953       -0.68349254850065
C           33.62817177779147       -6.88699248667112        0.52948674481468
C           33.81550514293253       -7.69342152677959        1.78603713941859
C           33.67790470351517       -5.49907967002618        0.56356282762823
C           32.43715722088971       -2.52497716320867       -0.90576638959242
C           31.23130034134453       -3.06906697532632       -1.45997924694446
C           30.45409032480337       -2.01799872902673       -1.81721358844095
C           31.15587683193473       -0.83431053522053       -1.42075545579695
N           32.36479129364559       -1.16014444914046       -0.86580548350863
N           35.00029467113946       -1.33727056870283       -0.11842649799615
C           33.48553747157408        4.59013367599485        1.76857479863112
C           33.26730213837048        5.74337375702100        1.01649881874189
C           33.22133940558997        6.98888928686729        1.63344841127983
C           33.01383460072496        8.23529635699723        0.81610635701266
C           33.39355667448786        7.07446907712039        3.01190661653789
C           33.61754778935889        5.93250564409013        3.77512806712108
C           33.78575029812094        6.03561514313676        5.26687906756082
C           33.66675921710006        4.69274195034311        3.14697271189372
H           29.63333654830043        0.55054089010217       -1.91708699470692
H           29.47675411516535        2.98864339817985       -1.00508961868853
H           31.01712648379701        4.49233134955619        0.61538043059245
H           36.10090610348893        4.14721253687314        2.00338284329990
H           38.05156734262126        2.42421233136379        1.31099234224572
H           38.05634079114349       -2.62750360352647        0.02459273545305
H           36.10758581853901       -4.47464134718521       -0.18965868205674
H           33.14694904412295       -4.83772308726651       -2.71912742680024
H           33.25904059516380       -8.55112525927582       -3.10947005971025
H           31.89892910400091       -7.46005355039693       -3.40672876856848
H           33.51365905112373       -7.02137779383509       -3.97071599398022
H           33.36021259414159       -8.61602907096794       -0.71373547051302
H           34.16608491952297       -7.06551553368751        2.60489896603485
H           32.86898882862753       -8.15046184055621        2.08215397883242
H           34.53851844386676       -8.49386249701318        1.62237714690755
H           33.85297079773098       -4.98263044556843        1.50095187748539
H           31.01912261626568       -4.12036285252772       -1.56782577717038
H           29.47798224072846       -2.02702493457532       -2.27588566895190
H           33.15576941369331        5.66693038966998       -0.05945120360574
H           32.43259473873458        8.97101082250622        1.37263404115510
H           32.49681637120042        8.00812314355968       -0.11623512490156
H           33.97965624486549        8.68262634570707        0.57016304217924
H           33.35715878151792        8.04458958306151        3.49688034270849
H           32.80890818015469        5.99326028209387        5.75406931705980
H           34.25952930622548        6.97892078741573        5.53958074509431
H           34.39097248954804        5.21276429199451        5.64758515336757
H           33.83449491332251        3.79372743973995        3.72984230906560
Fe          55.24594149037691       -0.06081500149068        0.15625918577418
C           58.62983845599194        0.07949372836114        0.11635386201478
C           58.00767848245560       -0.74179000871766       -0.80141250898607
C           58.71430419824229       -1.54006780515534       -1.75738836131431
C           57.78878959139639       -2.30297152259183       -2.38532691161622
C           56.51518914598974       -1.96053404915137       -1.82052139701198
N           56.66162881919862       -0.99046784234636       -0.86627618133396
C           55.32489594338534       -2.60663083924235       -2.13827317277156
C           54.10581421501955       -2.26178221864595       -1.57269169576324
C           52.86152405337734       -2.88563130767119       -1.91402293387409
C           51.88763384414221       -2.18834736082851       -1.28162029680565
N           53.88931179651744       -1.20726025167953       -0.71716385889778
C           52.53689453088509       -1.13981698442036       -0.55833709821763
C           51.84282250794085       -0.12473701233885        0.11033052109939
C           52.48234941871971        0.88905517402784        0.83193555555577
C           51.77916186276624        1.91122264025355        1.54294874861684
C           52.70735618872876        2.60398820971010        2.24596413612388
C           53.97618517143117        2.00322453909888        1.95942317518823
C           55.17177114098335        2.40259979941156        2.53951047276034
C           55.13546050661343        3.45544098103327        3.58314925885896
C           55.76751799130776        4.67862206772547        3.37403771533853
C           55.73115823060859        5.66913728241848        4.35203178847394
C           56.41481639300302        6.98720235967698        4.10653295468013
C           55.06488073957702        5.42250422305303        5.54655117463523
C           54.42976698299510        4.20266860480021        5.77121648766967
C           53.72825245733070        3.94947042255125        7.07824580307206
C           54.46416282123809        3.22532416689568        4.78459854535523
C           56.40209062252129        1.86922608822957        2.17132007938191
C           57.65367654428096        2.26215644937113        2.75183111312543
C           58.62498625274992        1.62533443565288        2.05575164301067
C           57.96518045324058        0.82917001412711        1.06527184256313
N           56.60532442771792        0.95963099982993        1.16874891371771
N           53.82376438758141        0.97423339671350        1.06177451852102
C           55.35736008812580       -3.70044619972742       -3.14030426186269
C           55.69539515511573       -3.42555917636315       -4.46418089455895
C           55.72249907907444       -4.44343273354538       -5.41188740012704
C           56.06493911420376       -4.13623388091085       -6.84476944006463
C           55.40850366755940       -5.74269532164529       -5.02559690106278
C           55.06939333912435       -6.03248413370800       -3.70696906025899
C           54.75220043787768       -7.44609443551181       -3.29976773336727
C           55.04522617837347       -5.00702624994834       -2.76808988707902
H           59.71305013922688        0.12591986932834        0.10173381970339
H           59.78275704526757       -1.51759774570056       -1.90285266737232
H           57.94407942899473       -3.04437246218782       -3.15224970039907
H           52.75482461237288       -3.73417411398603       -2.56990638038337
H           50.82196798631988       -2.34931430944592       -1.30668188001071
H           50.71195227898306        2.06081911278401        1.50838146657728
H           52.55861700609380        3.45020083367987        2.89688950002297
H           56.27520259820319        4.86434602830017        2.43385205260507
H           56.22903959224055        7.68297330081730        4.92450939567511
H           57.49266210105624        6.84051708600124        4.01341957628933
H           56.05559478894431        7.43440893767315        3.17822345980977
H           55.03574291913826        6.18882670090792        6.31440740803726
H           53.10666768942345        3.05605227554760        7.02160132961150
H           54.46223836663864        3.80848432099190        7.87456316172101
H           53.09955343194296        4.79940442830695        7.34720051405309
H           53.98121859531221        2.26833741564730        4.94892013136804
H           57.76143180285799        2.93929830313579        3.58365719623298
H           59.69419768329873        1.67398073760348        2.18868132881961
H           55.92307742553365       -2.40619819555695       -4.75608779526769
H           56.53320843500452       -4.99566089368119       -7.32507464149577
H           56.74153427641200       -3.28374875975995       -6.90800663183032
H           55.15628430425316       -3.89045522285182       -7.39917855472859
H           55.42773322293241       -6.54031964823861       -5.76122328136206
H           55.67725032131083       -7.99282422345083       -3.10322517951393
H           54.21499686375312       -7.96572732495824       -4.09379713335326
H           54.14675338612735       -7.46380545442281       -2.39352853781320
H           54.79602717520292       -5.22198220027984       -1.73476560715436
C           38.42528206336500        0.02419253438388        0.15742513327362
C           39.63954297098405        0.04456950583350        0.03186149033235
C           49.22370996263330       -0.10215982850990       -0.02509163137964
C           50.43964255718633       -0.11930192256452        0.04798333265225
Fe          44.42946843799761        0.03478609586729       -0.34968967500289
C           41.03082368371959        0.05693054926943       -0.11901640704258
C           41.73463307847467        1.24000707556833        0.15013493873105
C           41.10226267155907        2.46573215180281        0.52142515058149
C           42.05795902374535        3.42648602185719        0.47807258848782
C           43.27681783169473        2.77730422323335        0.10180562987877
N           43.06751197563592        1.43122341271583       -0.06302822098944
C           44.49028486685467        3.43628543566350       -0.06377137778455
C           45.69555478215705        2.76475813915972       -0.23167462081301
C           46.97276747643696        3.40685879828243       -0.31483693194523
C           47.90654850926028        2.42487779985884       -0.26298232776595
N           45.85079291321023        1.39975592768177       -0.20769124321486
C           47.19599819141752        1.18754948265428       -0.19054097981646
C           47.82499191712262       -0.06401900552890       -0.13637389682120
C           47.12615423095624       -1.26892533126590       -0.27382220758723
C           47.75833365314807       -2.54963274495022       -0.30131686562671
C           46.79785137070355       -3.44953042155583       -0.62840529251990
C           45.57993066510220       -2.71368652186666       -0.78430493502259
C           44.36521863126333       -3.28309579297015       -1.15713388651942
C           44.35363579377226       -4.71622041780796       -1.53114943850226
C           43.60132334824566       -5.63203739426500       -0.79782530016166
C           43.60176844108272       -6.98098045442528       -1.13911630258302
C           42.80822953035531       -7.96609836165723       -0.32401213771080
C           44.35924599679600       -7.40892025935961       -2.22407704192262
C           45.11539402370639       -6.50572983333988       -2.96762874056464
C           45.93888125406675       -6.99110766340413       -4.12978775776508
C           45.11231294686579       -5.16200192294991       -2.61405852575726
C           43.16673907883133       -2.58250166508972       -1.13690863698284
C           41.89303202026795       -3.15211712733968       -1.45867494766705
C           40.95735379079159       -2.23384668328241       -1.11171434062389
C           41.66308406891969       -1.09602140911499       -0.61452588940560
N           43.00731372262121       -1.29609057004623       -0.67595963296218
N           45.79045031367352       -1.38367004309618       -0.52747249936968
C           44.49254626691953        4.91624677268201       -0.00430595016662
C           45.22133069689088        5.59161720641931        0.97389581632786
C           45.21276745222733        6.98126877226958        1.02626818958672
C           46.01260278731137        7.70711669420216        2.07402638739296
C           44.47219950388433        7.69508195942654        0.08862954196309
C           43.73628153727707        7.03539812143753       -0.89127224408743
C           42.95044795521340        7.81717157666720       -1.90888676549901
C           43.74806656018603        5.64559678397919       -0.93106569623014
H           40.05754747230073        2.57047467130933        0.76293076572926
H           41.95835808678318        4.47737907751443        0.69555688572270
H           47.12829905997665        4.47006535021082       -0.39735704756992
H           48.98030019591867        2.51707023509765       -0.29036216941965
H           48.80318367534084       -2.72425620258853       -0.10155534872158
H           46.89446459152109       -4.51707360161493       -0.74086039896994
H           43.02852883245848       -5.28987485816041        0.05710012549272
H           42.55022387493806       -8.84374767505388       -0.91678292696600
H           43.39712882037009       -8.29597350863719        0.53491938934034
H           41.89137398381946       -7.50979945958086        0.05006841905510
H           44.36207842807568       -8.45948976497435       -2.49601565193404
H           46.29465768399881       -6.15589778483465       -4.73271303150117
H           45.35298734739653       -7.65846366974277       -4.76321075854612
H           46.80561422130959       -7.54713772201583       -3.76596072563344
H           45.68781605269157       -4.44620154846129       -3.19064071392853
H           41.74164485236221       -4.12807866873608       -1.89010659522054
H           39.88558309508930       -2.30246117199769       -1.20095058229779
H           45.77767237906772        5.02462731215542        1.71213213645467
H           45.51622020779434        8.63174257519331        2.36958453379260
H           46.99739188475153        7.96322501991778        1.67653038509809
H           46.15425911320671        7.08374020940854        2.95694638492009
H           44.46362211352169        8.77959444650928        0.12598010169642
H           42.59035617593779        8.75460138155404       -1.48440387245731
H           42.09762742002627        7.24063782640211       -2.26760369446989
H           43.58529123270156        8.05415896766713       -2.76570712234021
H           43.18655042377344        5.11913666934722       -1.69504050142366
