248
 energy: -425.979700306066 gnorm: 0.000725506388 xtb: 6.5.1 (b24c23e)
Co          38.07076385440632        0.35818396255924        0.20853531136393
C           34.69973673074848        0.32493590598534        0.13660693935316
C           35.36246720803106       -0.85568437056168        0.39691905924381
C           34.70803936744147       -2.09644158319115        0.68097073072605
C           35.67025146523785       -3.04917298419619        0.69180313435024
C           36.90952318434002       -2.39096854934817        0.39562208015985
N           36.71839823369041       -1.03659842595709        0.28842768925868
C           38.10145861547169       -3.04953362021881        0.12413771341194
C           38.11928636857998       -4.52922633414451        0.08010874888318
C           37.33703710144667       -5.21679329827814       -0.76785365467667
C           37.32672678566695       -6.72060333363062       -0.82928961992653
N           38.46542022543639       -7.29243861402109       -0.10859412271221
C           39.12793089521452       -6.58319507704025        0.85355131483204
C           39.02171810896257       -5.24570500540400        0.96675349418390
C           39.27877281844136       -2.35589890776161       -0.11826918517468
C           40.52084131367953       -2.97687833803433       -0.46811719332649
C           41.46477957383966       -2.00507472008843       -0.44427944336232
N           39.45108909487662       -1.00153337049851        0.04976108032910
C           40.79578600610935       -0.79406411102904       -0.08762396946561
C           41.46126590336980        0.39276931820171        0.22504597806833
C           40.76910220457213        1.56326373687496        0.54268328752939
C           41.40927508383595        2.78086619254921        0.92849098941528
C           40.44295695143972        3.72954555658243        0.97439673522342
C           39.21717042088790        3.08970150436978        0.60169019633698
N           39.42109570006738        1.74351758078825        0.40273492578096
C           38.02929745809738        3.76356295866401        0.35674204739752
C           38.00929158770203        5.24131294151860        0.44522262894486
C           37.19077091865970        5.88148472034834        1.29597326843626
C           37.14048025815615        7.38176760963297        1.40490636902895
N           38.27866613145880        8.00505241942329        0.72718950011217
C           38.97847677262443        7.34391851749319       -0.24293538006094
C           38.91039400345618        6.00836101872076       -0.39950892430893
C           36.86088323255704        3.08740468308967        0.03075826412958
C           35.62189275184469        3.72752339007686       -0.30333184461424
C           34.68244895851343        2.75438558332247       -0.36708536619519
C           35.34986320572190        1.52079096220884       -0.08137854729562
N           36.69520771813328        1.72740822280343        0.09547840052646
H           33.61640415477867        0.31381122618476        0.10965413735801
H           33.64734527479444       -2.20490194808780        0.84391332591235
H           35.56345633822492       -4.10548533069638        0.87887167002636
H           36.66110846246588       -4.71691941827268       -1.45177390941288
H           37.37911850684355       -7.05742560561160       -1.87423448484734
H           36.38175135753489       -7.11260429510600       -0.40962194107740
H           38.42973983693728       -8.29462246827119        0.00336672788835
H           39.80059042388510       -7.17092325313880        1.46995234253833
H           39.58781505965243       -4.69847743268551        1.70698296447445
H           40.64374347530462       -4.02330352159344       -0.69594055252564
H           42.52245924615546       -2.08571356031160       -0.63760343085833
H           42.46405740417635        2.88129512635574        1.12819880475355
H           40.54119833748791        4.77237457937351        1.22902709331392
H           36.51263946031893        5.34293493700876        1.94761465290326
H           37.16287559358668        7.68576337699644        2.46092520626556
H           36.19449994763990        7.76333531149157        0.97802940909067
H           38.21818776656058        9.00892165126234        0.64483364130158
H           39.64714486988433        7.96811125186833       -0.82700025334449
H           39.50475418370478        5.49978183076094       -1.14511215883248
H           35.50039462899727        4.78643335961359       -0.46517237002127
H           33.62845583731634        2.84476805751264       -0.57756815633895
Co          85.76982449779767        0.22062359828377        0.15934682548824
C           89.13196190706863        0.37771288683749        0.02479551034305
C           88.44268018671167        1.47165535420670        0.50464163526006
C           89.06485931327497        2.66072925044077        1.00195929178482
C           88.07374915217245        3.55977310305349        1.21088897548504
C           86.84900413239974        2.92691687791464        0.81544773302883
N           87.07996065322661        1.62259201600716        0.45678438745246
C           85.63484703287548        3.58475062072316        0.66982732290047
C           85.56199402925846        5.04399924828284        0.90670637766838
C           86.32228445149455        5.91122777280205        0.21864449535829
C           86.27398434532603        7.39770972601433        0.45047564888397
N           85.10316843820480        7.77696070666460        1.24321908006557
C           84.46229359923068        6.87122569303154        2.04166321683603
C           84.62351411693656        5.54223007216191        1.89948717905317
C           84.48264065359335        2.90957707019040        0.29033546001594
C           83.22637738074219        3.54356256040083        0.02546884118813
C           82.31552164947347        2.55410322421564       -0.14126090059544
N           84.35257738665833        1.54256559570629        0.21895191039225
C           83.01737268369908        1.32017915459130        0.02242607226778
C           82.38593762744726        0.08152941160634        0.15658355188897
C           83.11290284984680       -1.09920309079139        0.32123236804923
C           82.51427049138128       -2.37763131260132        0.54081480934854
C           83.51005310775983       -3.29273790007748        0.45305566977461
C           84.71182876197176       -2.57006714034864        0.16171267965313
N           84.46457684193757       -1.21657959644454        0.15287656163191
C           85.91416064345078       -3.16235535826047       -0.19799786370775
C           85.98396221036423       -4.63548875237046       -0.32487397769632
C           86.85165976314079       -5.36037542639701        0.39996082105245
C           86.95657491714070       -6.85744516330410        0.28679682516597
N           85.81734391766554       -7.41936030532936       -0.44102050512109
C           85.06482272199904       -6.65190327113118       -1.28554192706936
C           85.08224451483105       -5.30622248246782       -1.24732408445635
C           87.05179004786422       -2.40626566814625       -0.45115530370495
C           88.29733490765022       -2.94473300001031       -0.91513261323131
C           89.20373175622250       -1.93995834574650       -0.86163626636418
C           88.51071585801155       -0.78797178279692       -0.36986639260215
N           87.17892517526349       -1.06660084008250       -0.18758087851537
H           90.21312810148652        0.43038609124935       -0.02757758343741
H           90.12526077568511        2.77439487075765        1.16326995448762
H           88.15261087484085        4.56518764241993        1.59184730535325
H           87.02169513844683        5.57931483868904       -0.53970221160671
H           86.22323878961386        7.92946774681486       -0.50995951476195
H           87.19659754778490        7.73417413262630        0.95878280006336
H           85.09799616413839        8.73916641227257        1.54721166397908
H           83.75956890831583        7.30326699044663        2.74689000579298
H           84.07344362001099        4.84159139810434        2.51136811952318
H           83.07232891699789        4.60943844209277       -0.02191825949435
H           81.25929101584451        2.63600469860575       -0.34168339692140
H           81.46472123357468       -2.53719109360360        0.72970195386534
H           83.44625839239069       -4.36307325524117        0.56420572975030
H           87.53297441023227       -4.89619005488156        1.10341423650531
H           86.98126473804257       -7.31222809901247        1.28705321813763
H           87.89960470523816       -7.13593612895146       -0.21901044730289
H           85.91051040212062       -8.39713646000822       -0.67244264843665
H           84.39940123990600       -7.21009778083361       -1.93626751960819
H           84.44795613490703       -4.71834443789077       -1.89531685418897
H           88.44529590946260       -3.96247508772805       -1.23853382778245
H           90.25173607162317       -1.96073515527679       -1.11586373474461
C           46.66032931470702        0.49229628395337        0.31981344785795
C           45.43339967627175        0.45693485518158        0.28216507742826
C           44.08896788883057        0.42818069060860        0.25197891638468
C           42.86582023130595        0.40904284649121        0.23341471207640
C           48.00322559428835        0.54068739191862        0.37506623854871
C           49.22417293285846        0.59528422314185        0.43921110430482
C           62.55362478286209        0.15824521672520        0.17749933000994
C           61.32428457606995        0.16320134976173        0.17444505594874
C           59.98270133880297        0.21579411466648        0.20693130616213
C           58.76280936761410        0.30662653831904        0.26693824625645
C           63.89525065859329        0.20299627875766        0.21812821253872
C           65.11511188117065        0.28542364264315        0.28948689544964
C           78.41414688765597        0.03348813323718        0.19293556045137
C           77.18734217486625        0.07777085295550        0.23179836111706
C           75.84649170064223        0.16415483214780        0.29196025407750
C           74.62988951629283        0.27818436711262        0.36040254118334
C           79.75899073026360        0.01945866872406        0.16641775924134
C           80.98214973707204        0.03360581452306        0.15586823758316
Co          54.00767237130121        0.76335366761492        0.60649750535847
C           50.62361481903941        0.66659410929005        0.51570029065934
C           51.29064189642531        1.68360726942692       -0.17656314976478
C           50.63014087060958        2.74970096330805       -0.85897931720630
C           51.59559312891189        3.46938202172077       -1.48267773626221
C           52.83826207995276        2.80994851454385       -1.21538031702699
N           52.64206843855017        1.75681355476416       -0.35061216708834
C           54.02675049101890        3.07278077151490       -1.88165834250737
C           54.06514503124880        4.11752159729269       -2.92849607724927
C           53.26160186636611        4.07162113696937       -4.00391233828089
C           53.32302330981032        5.09094392878041       -5.10881220325780
N           54.09805221284159        6.26683951725801       -4.70907734065594
C           55.00592257147089        6.20718860326390       -3.68887186208347
C           55.01674196147179        5.20752286170052       -2.78742561983337
C           55.18154488622830        2.33931121116430       -1.63564914955198
C           56.37491342197637        2.42638919436242       -2.42074683448246
C           57.29900246418894        1.63847760689369       -1.81759404893371
N           55.36110965718487        1.47196552478830       -0.58637554312960
C           56.67240143153398        1.09073706212412       -0.65628316197184
C           57.37222875472917        0.44764313708351        0.36840820151167
C           56.73382656543260        0.03418456959841        1.54384479090545
C           57.42588928643988       -0.42649587176873        2.70473829557926
C           56.47818557245558       -0.80159474894175        3.59900512375454
C           55.21055287758242       -0.61180930981930        2.96028789245509
N           55.38339348602057       -0.02989193606535        1.72387126374396
C           54.00748907603991       -1.11205400031596        3.43597923781838
C           53.97770335767679       -1.87059322952358        4.70596319971604
C           54.71494391625187       -2.97780075539124        4.89110009542781
C           54.70177211689196       -3.75858443406637        6.17772385828347
N           53.58800270443072       -3.35494171225332        7.03753601805974
C           52.96841392346191       -2.14720164330384        6.88279359949133
C           53.09643550194713       -1.40710537544202        5.76544366781091
C           52.82182291157737       -0.96715144554363        2.72357791544147
C           51.59804096841685       -1.63209821089851        3.05284777512287
C           50.66100653969260       -1.18180985076033        2.18274746555644
C           51.30999451187842       -0.22434721598406        1.34352099245927
N           52.64380471815172       -0.14556899029802        1.63906453076942
H           49.56554721127592        2.91996049938039       -0.84436355737478
H           51.48415053175155        4.35868405723746       -2.08137495949937
H           52.57414085707346        3.24973609481946       -4.16642197992358
H           53.76298181855582        4.64136765631775       -6.01827387487312
H           52.30895917215676        5.42286168261889       -5.37244265082726
H           54.29634023585983        6.91125855746804       -5.45997623807776
H           55.66582367316475        7.06580894014684       -3.61741658695315
H           55.69885471389784        5.21462553694443       -1.94929513461840
H           56.47896164391656        3.01108999003445       -3.32057293195633
H           58.32135995545663        1.45437925475489       -2.10641491313496
H           58.49854546351082       -0.44336848998871        2.81270160154688
H           56.61709087856818       -1.18272662257964        4.59753022875659
H           55.36510758110968       -3.36646916083605        4.11617459684357
H           55.65841150533693       -3.62237179951304        6.71473584892563
H           54.60049694467177       -4.83263342857182        5.96807906439199
H           53.61584057782233       -3.74129416879151        7.96914396796661
H           52.31035644627312       -1.86556322490556        7.69851854921688
H           52.56097219328965       -0.47640714662883        5.64353386368549
H           51.48377841806101       -2.35434159492951        3.84491052876489
H           49.61656603719451       -1.44214910052154        2.12078222939240
Co          69.86985024593623        0.73385141578364        0.63782588012777
C           66.50463306818459        0.42879117235409        0.40284671494675
C           67.14917016854839        1.40588173633638       -0.36600006320321
C           66.45747190124227        2.36600938154089       -1.16539736637720
C           67.40422847625254        3.14696033328963       -1.74141308546832
C           68.67342804571989        2.62128827828993       -1.33721652820049
N           68.49795321986788        1.58834382481619       -0.44262214758954
C           69.88677949928945        2.98116300591163       -1.90329203200104
C           69.93438535610272        4.03219718906885       -2.94383004655151
C           69.24697156745080        3.93148966401088       -4.09308665592904
C           69.33206126174835        4.96609392977033       -5.18245175611784
N           69.95004426218854        6.20175168993210       -4.69814695144428
C           70.76252872617061        6.20370603508311       -3.59824676400219
C           70.77457301567088        5.19504406773363       -2.70716848247444
C           71.07035232641093        2.32754187448061       -1.57660273931843
C           72.29111620494665        2.47098045467978       -2.30929960019932
C           73.21012780946978        1.68452220214415       -1.69696270356280
N           71.23609897258228        1.44985186902432       -0.53562082228241
C           72.55677962784250        1.09427701549577       -0.57159782051350
C           73.23889436613109        0.43929439226584        0.45613828218014
C           72.59125614265440        0.05852786902374        1.63695259653490
C           73.27875251236780       -0.34311754233108        2.82201160998663
C           72.32791065622708       -0.61982431848632        3.74832885425528
C           71.06132850731919       -0.44413098188683        3.10397916388820
N           71.24036166744892        0.03492047775203        1.82550633345472
C           69.84862138670819       -0.86954690387469        3.62762071690119
C           69.79872962771714       -1.48172367547807        4.97406614885775
C           70.50593765357563       -2.57881726917300        5.28901808464623
C           70.46580221792151       -3.20567776006392        6.65703469137888
N           69.34227915627466       -2.69611472704848        7.44524895073543
C           68.75603379776545       -1.49654170965118        7.15299022380587
C           68.91896432595490       -0.88355054967634        5.96566766383749
C           68.67062378830958       -0.80465280229863        2.89215873929271
C           67.45303203019418       -1.45350974447565        3.27241517521198
C           66.53716046884264       -1.15898529843126        2.31749661386721
C           67.18885698809409       -0.30203339813662        1.37791301894054
N           68.50537742542872       -0.13344081149917        1.70621333303835
H           65.38475657612912        2.43606455524651       -1.24801733304068
H           67.26447428636450        3.99403408588773       -2.39299422963795
H           68.65135360780828        3.05683061162117       -4.32660180227644
H           69.90484832121192        4.56947562863326       -6.04126944341419
H           68.32590049328655        5.20929100048655       -5.55130975683303
H           70.16167951787551        6.87269701718643       -5.42182255009848
H           71.33644683773458        7.11411266032781       -3.45868506723166
H           71.37399221668502        5.24499351367149       -1.80937521375425
H           72.41322433334196        3.08318528090151       -3.18828206497761
H           74.24592812097164        1.53133358110095       -1.95390840810543
H           74.35134516982735       -0.38101849328687        2.92528042738304
H           72.46482427383670       -0.92753481390836        4.77209978692092
H           71.14969062577495       -3.06983971978886        4.56885207740851
H           71.41561240404339       -3.01581534602239        7.19038065866820
H           70.35652581939770       -4.29573413653312        6.57110344199350
H           69.34973430448747       -2.97807054303981        8.41408036309885
H           68.09236692473652       -1.11480259901681        7.92214892588811
H           68.40777405381203        0.04013138477707        5.73498920047419
H           67.33027761931162       -2.06597070843656        4.15092165595201
H           65.50433827802797       -1.46228430717944        2.25626780135413
