126
 energy: -217.151601588963 gnorm: 0.000486958558 xtb: 6.5.1 (b24c23e)
Ni          14.10920138508901        0.03312398928526       -0.00649290693614
C           10.72106588501030        0.12380463774192        0.10461009067559
C           11.37586306551370        1.14228170415336       -0.55665183507576
C           10.70550424472428        2.21020888346165       -1.23227266196043
C           11.66674178910313        3.06176201869025       -1.66188631370375
C           12.92318146732483        2.52030319296322       -1.23460691135303
N           12.73661173344878        1.32011210479691       -0.59549482290866
C           14.14269870045439        3.16745540530152       -1.39591490512112
C           14.15862404691789        4.52486134977433       -1.98764738308215
C           14.86776100708306        4.78255341450538       -3.16335586379362
C           14.88594334686441        6.05029791159049       -3.71705730510562
C           14.20450190516282        7.09819519761628       -3.09240378021192
N           14.19042707881090        8.35908975075152       -3.66196456360656
C           13.48882278687992        6.84737991087981       -1.91871760177362
C           13.46680490640539        5.57425923594854       -1.37780008747499
C           15.34745554578322        2.59125067011134       -1.01313935604096
C           16.61198909539327        3.25548212601919       -1.10257218887961
C           17.55558980961083        2.35334938526444       -0.73900102119349
N           15.51306178026962        1.30464334883097       -0.55111403891720
C           16.86517466625497        1.14562037499460       -0.41805525073632
C           17.51796762841969       -0.04713551867778       -0.09323060650604
C           16.82799327293996       -1.21047706361807        0.25958983189329
C           17.47630608106028       -2.45090428801688        0.54073482541170
C           16.51030974818293       -3.31135628905236        0.94475876045735
C           15.27533116792999       -2.58838452317580        0.92155095753402
N           15.47798081668297       -1.30773887890333        0.45761526918673
C           14.06638760235981       -3.10784067757328        1.36720056731411
C           14.04701886151206       -4.46765372529704        1.95369294402425
C           14.80197797535912       -4.76421143832224        3.09101571544021
C           14.78526477534168       -6.03313474758239        3.64211717588513
C           14.02117430828559       -7.04358810321407        3.05259274804853
N           13.97405537902786       -8.30444816210800        3.62119580235272
C           13.25895126302373       -6.75341574947400        1.91798294813909
C           13.27253489597437       -5.47887171460503        1.37994903982602
C           12.87411509884535       -2.39830995616524        1.28276028634744
C           11.62073324651939       -2.87661414556804        1.78746265888446
C           10.68131182159077       -1.96906639503716        1.43045648254766
C           11.36262579353694       -0.93212138075728        0.71839441998782
N           12.71125353820437       -1.18363555738989        0.66503121031616
H            9.63826934155984        0.15356266219219        0.14183748089950
H            9.63622773862517        2.28081188606109       -1.35398257825443
H           11.54852770795333        3.97482964553707       -2.22244994152786
H           15.39345974706383        3.97282185805210       -3.65760860323471
H           15.43079624857709        6.23583695305688       -4.63633682998474
H           14.95764668417896        8.55510806485908       -4.28467165509826
H           13.97685055202966        9.11191596352915       -3.02763165919148
H           12.95468848552835        7.65596567995160       -1.43162760210168
H           12.92395923303425        5.39115208249424       -0.45686748244278
H           16.75025878057168        4.28230822214865       -1.39938499709124
H           18.62496678710196        2.47998506688486       -0.68745048325962
H           18.53501203417903       -2.62598737063641        0.43644985945212
H           16.61472608008276       -4.34559106328492        1.22956417038269
H           15.39183851374835       -3.98321056868185        3.55823729539065
H           15.36623950604676       -6.24852929923391        4.53223328320425
H           14.76301484299131       -8.53945883745838        4.20205467139484
H           13.69399509371494       -9.04340470020036        2.99621733813014
H           12.66042491365990       -7.53263218735410        1.45877615560298
H           12.69190910573487       -5.26556398031014        0.48907623014100
H           11.48997046925627       -3.78869689907448        2.34686208692487
H            9.62022197123806       -1.98313233177851        1.62289688643990
Ni          30.10007396451658       -0.02391880789230        0.02479360291049
C           33.48819651683392        0.01818947224881        0.16146550720977
C           32.83333086600941       -1.09582810946545        0.64462096641637
C           33.50358294415576       -2.24927744097946        1.16097957053834
C           32.54228079554638       -3.07789725517462        1.63318134451810
C           31.28591455811943       -2.42231749423826        1.41837159948248
N           31.47257162081324       -1.22631789430117        0.77147056000575
C           30.06643893041935       -2.91404483432388        1.86906276235938
C           30.05049779231490       -4.15729425883253        2.67344090121515
C           29.34095672030459       -5.27943692959585        2.23880738431431
C           29.32270978426731       -6.44141380981051        2.98952672890200
C           30.00444349886110       -6.49989348504234        4.20790162433471
N           30.01837510041996       -7.67126128165631        4.94429988715427
C           30.72058976867547       -5.38326925825363        4.64710190442150
C           30.74270429336122       -4.22899135765791        3.88482452306056
C           28.86177151607895       -2.27620810769113        1.60092750093783
C           27.59731856804196       -2.71723845874210        2.10579467521275
C           26.65375532743203       -1.91539919424830        1.55517826026894
N           28.69617549642148       -1.18026901420817        0.78379438424425
C           27.34409373821346       -0.98126513499060        0.72505654770592
C           26.69134186261397       -0.05188163767522       -0.09009513178449
C           27.38138377536965        0.88459563286885       -0.86519243320000
C           26.73309116636032        1.80418433666134       -1.74389198713483
C           27.69918035078246        2.61590226055722       -2.23839680844214
C           28.93412665415503        2.19732567568147       -1.64839348620039
N           28.73139767658833        1.10341266530344       -0.83682813858680
C           30.14306311839112        2.85582301496406       -1.83513199965301
C           30.16231390319026        4.09607482580339       -2.64431949706526
C           29.40658840181333        5.20741019133544       -2.26319399313604
C           29.42309534186841        6.36808752359811       -3.01598512874331
C           30.18780596719773        6.43575922588801       -4.18347401107265
N           30.23471394279085        7.60657087053991       -4.91988017064437
C           30.95082608648885        5.33024432540538       -4.56840281316252
C           30.93740270885071        4.17732735291952       -3.80372001107780
C           31.33529717413698        2.39358571263528       -1.29014453404262
C           32.58865205910187        3.07861837866247       -1.40969831205077
C           33.52800762466423        2.27973004481862       -0.85022532737336
C           32.84668541367524        1.11326323229268       -0.37945733307173
N           31.49810264278093        1.20767658046706       -0.61884202655791
H           34.57098689940030        0.03277576902191        0.20698297964264
H           34.57283940410601       -2.38987372376273        1.15242057410366
H           32.66040380653296       -4.04978565812746        2.08414604395177
H           28.81492061913348       -5.24381338393539        1.29099622829929
H           28.77750142564325       -7.31000034711433        2.63640801496970
H           29.25063583546773       -8.29811985462931        4.76403311751793
H           30.23196832864052       -7.55816005923737        5.92223832392035
H           31.25505760485592       -5.42421801412565        5.58999527722453
H           31.28594496985511       -3.36039261353760        4.24084920738683
H           27.45909477799853       -3.53187772206053        2.79778354903197
H           25.58443374718246       -1.94196706467377        1.68974341712286
H           25.67437248979811        1.81404302205674       -1.94737166408993
H           27.59482668367946        3.42428849766899       -2.94357741462092
H           28.81627594582090        5.16474439692560       -1.35439966813609
H           28.84149209102686        7.22860646496522       -2.70376882356135
H           29.44530941729571        8.22007581027371       -4.79509189664238
H           30.51536946835072        7.49433351744263       -5.88098620705226
H           31.54984849625478        5.37863051581591       -5.47124145978213
H           31.51863160091000        3.31732540190872       -4.11812714521897
H           32.71946879817607        4.04879716016010       -1.86087998887430
H           34.58905804268593        2.44800668367040       -0.75537573051668
C           22.71858487865022       -0.07916138995695       -0.15678234197481
C           21.49072201424953       -0.08734746923237       -0.15307992805615
C           20.14560747010739       -0.08419531599538       -0.14144310744573
C           18.92235330708742       -0.07375980024076       -0.12130752974419
C           24.06369099164533       -0.07122795219127       -0.14653304503367
C           25.28691785606421       -0.05927857389360       -0.12655583030828
