152
 energy: -262.788663362123 gnorm: 0.000362856276 xtb: 6.5.1 (b24c23e)
Zn          11.88768556462997        0.05179715721635        0.01689681281523
C            8.48531917742616        0.26231800593143       -0.16115510551886
C            9.11193188202836        1.10649958203639        0.74828948083174
C            8.43926288155239        2.03651066467283        1.61270658976179
C            9.39533251474253        2.65867611093829        2.34693918169276
C           10.66437160666154        2.12066543797097        1.93570887809668
N           10.45698808695840        1.18157634363950        0.96830908306834
C           11.90872271248087        2.48675346739924        2.45892112265495
C           13.14381830631370        1.95997963240173        2.07499157967543
C           14.41823176314189        2.37231915126558        2.59424447371565
C           15.36680701844993        1.64423665091374        1.95212254416690
N           13.34285167658247        0.99175574315446        1.12655140970965
C           14.68206409102171        0.78116191772218        1.03369045017661
C           15.31588066966560       -0.13697737159263        0.17142845341590
C           14.66469803252923       -0.99454581534963       -0.73903198413015
C           15.32989900283548       -1.94032016818707       -1.58771554297394
C           14.36807118213979       -2.57238565372927       -2.30714322649744
C           13.10566351903988       -2.01388170595910       -1.90954063753811
C           11.86037709786767       -2.39819823796348       -2.41129309641550
C           11.84912793679772       -3.45889334447327       -3.46023328952130
C           12.31392203052195       -3.18304841995224       -4.75264015692838
O           12.74841162183491       -1.91274098166327       -4.96879617510432
C           13.26016167010621       -1.53748634891151       -6.23133342282364
C           12.30437940531339       -4.17509898221423       -5.73274588912553
C           11.83454135453102       -5.44040131847720       -5.41470741582308
C           11.37145805069332       -5.73743588422942       -4.14179090495741
C           11.37670092277900       -4.74371892822025       -3.16338075457732
O           10.95024630377779       -4.93909049791851       -1.88671337035551
C           10.47002407506394       -6.20402553403553       -1.47968639918459
C           10.62348196251074       -1.87559765070685       -2.02006955795593
C            9.34750171774458       -2.25663366352276       -2.56388145870551
C            8.40500329372332       -1.50998974346133       -1.93578266689600
C            9.09394717766611       -0.66115898302096       -1.00327499156764
N           10.43466025073655       -0.90570616895328       -1.07967802181619
N           13.32408622402560       -1.06040864185973       -0.95048012833631
C           11.91861179310347        3.53481759896321        3.52042036304359
C           12.21758468405906        3.19619758967700        4.84653283754043
O           12.47606871743752        1.88164520026272        5.07968975766161
C           12.81795141064388        1.43952875008859        6.37749670027299
C           12.22703729274273        4.17492397780629        5.83991849933400
C           11.94243761676203        5.48933199248974        5.50186722211100
C           11.64611122202817        5.84872939037791        4.19570925612196
C           11.63196556152232        4.86880777323703        3.20356416049625
O           11.36067480028177        5.12300812052921        1.89524668407885
C           11.06584009613867        6.43740681229816        1.46893418030925
H            7.40316050239175        0.33057303374942       -0.21890802624958
H            7.37069733116680        2.18290924398457        1.64669005138503
H            9.26089006215335        3.41630651738757        3.10259244530997
H           14.56368023696871        3.12623317776547        3.35134331078573
H           16.43698631791827        1.68278251372255        2.08101634987296
H           16.39651219792939       -2.09748385863797       -1.61902987209979
H           14.49694242975991       -3.35004980136195       -3.04288957573780
H           12.49948448054264       -1.62746120321642       -7.01650325638526
H           13.55830598507731       -0.49135387884858       -6.13987904671901
H           14.13586868098125       -2.13856953361516       -6.50480650369464
H           12.65722407376491       -3.97108524478568       -6.73484084195091
H           11.82923977525888       -6.21263968894615       -6.17615690149549
H           11.01256412363101       -6.73392761509897       -3.92151746398546
H           10.19691423790275       -6.10161678632877       -0.42772790647272
H            9.58414349825635       -6.50189857467003       -2.05378972564152
H           11.24176411256731       -6.97729738070247       -1.57742766303296
H            9.19988370585374       -3.00077642874247       -3.33043834145254
H            7.33618559254636       -1.52160265740682       -2.08387981732842
H           12.99843171911422        0.36612096846734        6.29524377295422
H           12.00217717518661        1.61356290280895        7.08978625936651
H           13.72825681933817        1.93055483467005        6.74237127683863
H           12.45204404776279        3.92289331276634        6.86762609424524
H           11.95175984865580        6.25093515308030        6.27391064736928
H           11.43026115522707        6.88238288376419        3.96054366224101
H           11.90564125003510        7.11813866013564        1.65448678290863
H           10.88603561955641        6.37531692891867        0.39399517329412
H           10.16723876292837        6.82811884405989        1.96187604003198
Zn          30.47942949337796       -0.01271675093371       -0.05448386840829
C           33.88164053571661        0.19771037483124       -0.23883256047853
C           33.25553478253300       -0.58243416050188       -1.20411361469488
C           33.92846272177059       -1.30378360557958       -2.24885899565959
C           32.97278843308710       -1.94288362093896       -2.96895187993616
C           31.70378586333067       -1.61503197811308       -2.37639959978110
N           31.91071677152534       -0.79152170432937       -1.30881157606788
C           30.45995843435695       -2.08323187298172       -2.81188983084114
C           29.22481860837284       -1.78104657355786       -2.23454088684763
C           27.95105333593744       -2.23992462057092       -2.71487843129819
C           27.00201513699231       -1.70964359301043       -1.90226508060013
N           29.02498757364583       -0.97991210230742       -1.14146216460607
C           27.68585287091556       -0.92089267819480       -0.91860379442279
C           27.05141383952694       -0.19797137426815        0.11244325422549
C           27.70196568535966        0.58330402170237        1.08959698029551
C           27.03621716199358        1.28935859113542        2.14579966318912
C           27.99749368445386        1.91370026615603        2.87269220351368
C           29.26009626036621        1.60011100817685        2.26346551990792
C           30.50500031843772        2.04336853650369        2.71482009039064
C           30.51601289866755        2.93136914790460        3.91357598214920
C           30.05635338792340        4.25148450941837        3.82251276757887
O           29.62544240701038        4.64677100700930        2.59481635622679
C           29.12142085266141        5.95251563045727        2.40062237107347
C           30.06708842336715        5.08127522743785        4.94333415425442
C           30.53285259342558        4.58553501647104        6.15172054001153
C           30.99044805122474        3.28153162821917        6.26654586901322
C           30.98406184468431        2.45367126937894        5.14431509274490
O           31.40547439851991        1.16056053210769        5.15760263669800
C           31.87933331177607        0.57604426649204        6.35348871671010
C           31.74216856465611        1.73114574853409        2.14216421311567
C           33.01772963259840        2.21594042120821        2.59705944790139
C           33.96071718916432        1.70124512888886        1.76870044529012
C           33.27248294182149        0.89873675932138        0.79553671164738
N           31.93171618296306        0.93843729207649        1.04839862152063
N           29.04233746209742        0.78498067332998        1.18421658731243
C           30.45032770564358       -2.98469723283768       -4.00049561225448
C           30.16021681175959       -4.34720283666052       -3.85274063205974
O           29.91068756865700       -4.76661819389352       -2.58346039512537
C           29.57958142585233       -6.11648375814393       -2.32871478876665
C           30.14970500420084       -5.19093406180637       -4.96306979155668
C           30.42446511831961       -4.66719021757598       -6.21732335701205
C           30.71220289224750       -3.32147126979960       -6.38835771412490
C           30.72737584330276       -2.47912840998423       -5.27702755918102
O           30.99090651688759       -1.14644004520957       -5.34320329481837
C           31.27322604451340       -0.53475165139662       -6.58517126763178
H           34.96371040368416        0.26576907028042       -0.29840249654691
H           34.99692307285056       -1.31473400024134       -2.39950617070617
H           33.10736021446091       -2.58200812398709       -3.82716218023457
H           27.80639267174829       -2.88306118882443       -3.56823043687075
H           25.93208797684263       -1.83445255725675       -1.95750508217954
H           25.96963236324670        1.29687994530394        2.30608510047954
H           27.86827822050353        2.53243201688394        3.74629808784332
H           29.88591143430932        6.71278566847292        2.60250282456921
H           28.82605651596453        6.01156855949451        1.35137529772409
H           28.24529262862341        6.14318832292649        3.03228156208135
H           29.71839368324812        6.10354588248045        4.88260091845186
H           30.53931908234981        5.23008696431546        7.02390077628513
H           31.34619846129820        2.92107098017282        7.22249057447799
H           32.14878100980746       -0.45191289989221        6.10369960844333
H           32.76626441672145        1.09819798911890        6.73270252967272
H           31.10501030333175        0.56642688080475        7.13028588299072
H           33.16474108126546        2.86879507107411        3.44283368617621
H           35.02942575461778        1.84693068900438        1.80150094161110
H           29.40577287277521       -6.18916337194179       -1.25351205905490
H           30.39848836856275       -6.79105334315979       -2.60709693676860
H           28.66824810938419       -6.41404782591497       -2.86147726028965
H           29.93113951015795       -6.24533931812057       -4.85903698175004
H           30.41409057242408       -5.32274018120557       -7.08122496758427
H           30.92064885472620       -2.94011057336535       -7.37906143510725
H           30.42932995741639       -0.62699397558059       -7.27974689632987
H           31.44718207804468        0.52152898305051       -6.37138815413254
H           32.17168953927163       -0.96063735234556       -7.04834906142635
C           16.71826542097997       -0.19641396973429        0.21627132609603
C           17.94222555906752       -0.23987484156825        0.24056068586168
C           19.28402763445472       -0.27305627180547        0.25554133592512
C           20.51478549166903       -0.29672563741553        0.25829765285367
C           21.85236067461672       -0.30544207253397        0.24921651623830
C           23.08316488292209       -0.30266528888964        0.23031880803566
C           24.42500027991067       -0.28300322194309        0.20079796264075
C           25.64911359344147       -0.25246910242346        0.16537506206366
