128
 energy: -220.057848262477 gnorm: 0.000437238238 xtb: 6.5.1 (b24c23e)
Co          12.85591132976374        0.03608647718230        0.02580211399368
C            9.48457821654831        0.11945572806351        0.07464117612412
C           10.15214078363657        1.07143941983390       -0.66592683100979
C            9.50299656205146        2.08551948202521       -1.43872631091362
C           10.47030365353417        2.94168423665044       -1.84584476904851
C           11.70758308637088        2.45565402106419       -1.30949793519741
N           11.51069332634132        1.26950725334055       -0.65032034396120
C           12.90846314730005        3.15460658230010       -1.35527116945073
C           12.92948745478832        4.51527535859099       -1.93286783575765
C           13.77643014398419        4.82429604046916       -3.00079750838762
C           13.79507145844301        6.09479872025590       -3.54715173351466
C           12.96525768533504        7.09320370542916       -3.02959785823667
N           13.01729595780319        8.37759651462461       -3.54002095770855
C           12.12550398439906        6.79627849081783       -1.95265947779828
C           12.10446665540882        5.51998955588148       -1.41999476160106
C           14.08692917276143        2.60643259012087       -0.86841712464045
C           15.34112930115359        3.29570549966991       -0.83138080544004
C           16.27974861408988        2.38227728336866       -0.48209904891315
N           14.24878299974241        1.29822997212648       -0.47230085593842
C           15.59452208072995        1.14387314150985       -0.29291508872348
C           16.24422322318621       -0.07761897098042       -0.09154178412162
C           15.53492038788031       -1.25682034503728        0.15202055440864
C           16.15578795910967       -2.53167530345859        0.32112722362659
C           15.18483789734295       -3.38504962316027        0.72871960122199
C           13.97590465167317       -2.62332424406651        0.81975199123242
N           14.19178857773056       -1.33192677315475        0.39425793300069
C           12.79321571688543       -3.09884707414964        1.36862039050469
C           12.76208999649842       -4.45518576216952        1.95640040447971
C           13.63385555545445       -4.80603972623878        2.99075952016631
C           13.60139277484215       -6.07197357893385        3.54716649136126
C           12.70248226212312       -7.02747049969624        3.06524827663317
N           12.64096452080082       -8.28211159136344        3.64429878647613
C           11.82556920923872       -6.68402344290858        2.03265892908243
C           11.85626679308781       -5.41202614075316        1.49031294087550
C           11.63356158388589       -2.33188585436205        1.37533991478558
C           10.39771816788437       -2.74249610682066        1.97423624523714
C            9.46141829447342       -1.83731973353277        1.60168982550407
C           10.12954224446242       -0.86730278243303        0.78969265187949
N           11.47113383862030       -1.14583056292155        0.70728003361540
H            8.40157273466942        0.15010415440330        0.09836047102290
H            8.44181209975824        2.12496757997103       -1.62720398802040
H           10.36787950867878        3.82595914210406       -2.45388489328184
H           14.40975362877987        4.05034280489277       -3.42039799961215
H           14.45052769548374        6.31979632963896       -4.38141678724396
H           13.37097976993436        8.45085160662402       -4.48036416163414
H           12.20155072234861        8.94185982977783       -3.36425501196346
H           11.49034728597379        7.57083808898898       -1.53703493371958
H           11.45770743510667        5.30083632726376       -0.57744401366126
H           15.47567010010747        4.34366505040571       -1.04439126960552
H           17.34264985090379        2.51849126711030       -0.36349191299456
H           17.20211872813247       -2.72990614602488        0.15256772439597
H           15.26951256126062       -4.43638849736041        0.95086275513487
H           14.32755666171033       -4.06746806119845        3.37733462616054
H           14.27346658489103       -6.32798338191489        4.35895680198106
H           13.47617855850512       -8.57200164423153        4.12727539602992
H           12.23197014252697       -8.99995915409303        3.06788609984597
H           11.12390260844358       -7.42031578218658        1.65612930282236
H           11.18505795402784       -5.15933507062892        0.67676523852095
H           10.27507668547153       -3.61353743782208        2.59737750113662
H            8.41007460299145       -1.81437350751842        1.84110725230364
Co          31.36564154124794        0.00226726575940        0.04818447329695
C           34.73623575544542        0.00027556283242        0.14567952874008
C           34.06981728455225       -1.14527571685865        0.52526129480857
C           34.71954900120825       -2.35103675949926        0.93870798847565
C           33.75287604579687       -3.16525978515375        1.42566530294451
C           32.51540265423201       -2.44936202735218        1.32106034800567
N           32.71138592018454       -1.24300685719467        0.69934112193065
C           31.31564716689311       -2.87354664745298        1.88106835059929
C           31.29558172598786       -4.10741693585581        2.69488838666775
C           30.44374463552205       -5.16551441074044        2.36591026148211
C           30.42565148603981       -6.32355990481283        3.12192227979717
C           31.26102613396201       -6.44745959015040        4.23554043558524
N           31.20971465160359       -7.58310792940639        5.02319760311085
C           32.10578207610219       -5.38859923689720        4.57964763645083
C           32.12611973950808       -4.23872595671858        3.81124449089222
C           30.13736964115094       -2.16328168310638        1.69706921275689
C           28.88436779957223       -2.51092024557615        2.29587896240309
C           27.94500404108699       -1.71506757257607        1.72861386425697
N           29.97421996044430       -1.11137329876246        0.82458774124431
C           28.62859042973835       -0.87555630776476        0.79760848349197
C           27.97821034747045       -0.03564505500886       -0.11146772651885
C           28.68706829007767        0.81632386344394       -0.96281772797690
C           28.06611806879036        1.65793218322600       -1.93518226001863
C           29.03643580532485        2.46924101696502       -2.42245812938871
C           30.24502331475659        2.12835807710885       -1.73455287482412
N           30.02981364928973        1.06162399291134       -0.89123929062650
C           31.42627077600626        2.85128812643904       -1.82585537675792
C           31.45678725029791        4.08974511079968       -2.63271347869488
C           30.57914750392361        5.14256870911000       -2.36005743883532
C           30.61155450849098        6.30523345849165       -3.10868090052799
C           31.51660943112472        6.43419250058667       -4.16574149114637
N           31.57833646651737        7.60983983343780       -4.89202304344289
C           32.39929512888803        5.38692045346631       -4.44376920339805
C           32.36838904499231        4.23259266474596       -3.68250193348015
C           32.58522692834059        2.43648698935084       -1.17913220868845
C           33.81925998861279        3.16563751611416       -1.18598036088510
C           34.75601333127124        2.35675631626626       -0.63537885104304
C           34.08998850527492        1.14180918237877       -0.27907234133022
N           32.74896296765431        1.22430533181510       -0.56026996012670
H           35.81919586239890        0.00455030589600        0.18549771202490
H           35.78066227054696       -2.52957837438559        0.86558700809336
H           33.85591508815657       -4.16205972096449        1.82304585263881
H           29.80609861894327       -5.08496707587351        1.49239028922710
H           29.76631947629118       -7.14099926154188        2.85117750557684
H           30.85054793224072       -8.40578502920731        4.56614336997963
H           32.02778234313597       -7.75151090107301        5.58636574043243
H           32.74528278026978       -5.47286084393124        5.45146651674877
H           32.77667724320503       -3.41755791161573        4.09175112028195
H           28.75102467975476       -3.26594762798283        3.05341458294219
H           26.88258860307092       -1.69018296951426        1.91040476881074
H           27.02017588267754        1.62450864735266       -2.19479397912572
H           28.95142664743176        3.23289489816362       -3.17838791057102
H           29.88082377340325        5.05490271427593       -1.53495252316481
H           29.93474010276627        7.12078878442991       -2.87843903261295
H           30.74044801473337        8.16881964551121       -4.87305071906502
H           31.99308086704556        7.52629391176216       -5.80631863001662
H           33.10563515232820        5.48198099062002       -5.26124806278668
H           33.04404954948273        3.41720990785373       -3.91674138329709
H           33.94062162567576        4.16703912887751       -1.56616725366785
H           35.80639761968482        2.54624579564177       -0.48062215154836
C           17.64524733278797       -0.11383674136333       -0.13044938814452
C           18.87004605445429       -0.12706094104494       -0.16119401241533
C           20.21150678774843       -0.13271930868009       -0.18632883468498
C           21.44282124360633       -0.12302290489807       -0.20553621291389
C           22.77965595849598       -0.10695309988332       -0.21371009854477
C           24.01097683379691       -0.08580270376059       -0.20993573939462
C           25.35242269481090       -0.06757158464922       -0.19054900210951
C           26.57719677465399       -0.04776641982824       -0.16262670352579
