124
 energy: -223.952910175278 gnorm: 0.000608071597 xtb: 6.5.1 (b24c23e)
Co          14.36093669514799        0.03123567223348       -0.00859459370284
C           10.99390301946857        0.03475884786048        0.14107381204247
C           11.65082738749163        1.24331945846948        0.04624530518761
C           10.99441120263440        2.51185742406731       -0.04320691975014
C           11.95529406807354        3.45690289089148        0.08822537823071
C           13.19624950201093        2.76341108261987        0.27476375761161
N           13.00698207229160        1.40881600168137        0.17662556435369
C           14.38938741010821        3.37238069663730        0.64227625275411
C           14.40336819883406        4.82629365937155        0.91500108884036
C           13.57745275871915        5.37014020167201        1.90178831419237
C           13.59217000467342        6.72827345905379        2.16319222893562
C           14.43378255722698        7.57331609778621        1.43373230533528
C           14.44979697584711        8.97199523599603        1.69826428514453
N           14.46268299164252       10.10259206441921        1.91260558883603
C           15.25999568686218        7.03465966432791        0.44290405265462
C           15.24471934823276        5.67467531496339        0.19112653518814
C           15.56844076834201        2.65152836620031        0.76807923639473
C           16.81210451598961        3.20689045477217        1.20987421953092
C           17.75718999350096        2.25633070439009        1.01121074220719
N           15.74054506823451        1.34338519059709        0.37799136060535
C           17.08744060410159        1.12195013071147        0.45909092480447
C           17.75041798076501        0.00936894685428       -0.06457501638178
C           17.05225877995508       -1.09163792330493       -0.56731869643022
C           17.68130258409065       -2.22288569601704       -1.17050193226715
C           16.71634010100361       -3.15942554593003       -1.34050760518613
C           15.50275901318046       -2.60017239262142       -0.82606076655276
N           15.71004371390432       -1.30290568966636       -0.41763809204668
C           14.32638054304263       -3.31311924481824       -0.64162597878468
C           14.31017542271209       -4.76330816327705       -0.93277989375532
C           13.41366282278397       -5.28961154076511       -1.86604162362789
C           13.39750373673030       -6.64506831128031       -2.14112194888692
C           14.27908000509773       -7.50512282448955       -1.47961575556671
C           14.26314199550267       -8.90128396170518       -1.75704998173982
N           14.24970516349219      -10.02998993262072       -1.98068572098753
C           15.17665299808437       -6.98402912806662       -0.54296354034760
C           15.19119410958098       -5.62680198459459       -0.27702939325810
C           13.16478448375232       -2.70116557879165       -0.18789046718641
C           11.93598791554678       -3.39059503169246        0.07834688934591
C           10.99472204916787       -2.44273714263475        0.29882338188373
C           11.65083541899152       -1.17640582041990        0.17866420434064
N           12.99417551542791       -1.34767059823944       -0.04799392089779
H            9.91124180877057        0.03688985868766        0.18325121420673
H            9.93310195025240        2.64187892320546       -0.18285946508520
H           11.84696377092531        4.52917538572681        0.06622773110412
H           12.93358039587748        4.71622898675380        2.47895690362600
H           12.95359329857109        7.14192349083357        2.93484161599249
H           15.91089500092850        7.68730163899940       -0.12692831346668
H           15.87792982791459        5.26240490699314       -0.58627791348969
H           16.93530298840307        4.19745920133705        1.61632974991290
H           18.81621479496299        2.30636730497567        1.20636567795207
H           18.72861672866560       -2.27990149222929       -1.41972958905260
H           16.80780304009096       -4.14221950183336       -1.77339569339876
H           12.73759828606239       -4.62431364055809       -2.39100703978746
H           12.70319588760734       -7.04503790569544       -2.87067882688020
H           15.85894911369142       -7.64828313736424       -0.02571936016171
H           15.87939561957290       -5.22856837688583        0.45988432764309
H           11.82181509989699       -4.46240090500033        0.08980499683002
H            9.94574111487754       -2.56899500754174        0.51436833472383
Co          32.88074932780219       -0.03448753190870       -0.00511985409929
C           36.25055752103519       -0.02996342099907        0.14424699233200
C           35.59388962771526       -1.24201763283148        0.12988024863971
C           36.25351418091068       -2.51209554134986        0.12812395181047
C           35.29309027279911       -3.44889011802023        0.31019846012140
C           34.04916650178237       -2.74761846736173        0.43892559787082
N           34.23693242012531       -1.40103026510322        0.25998721084602
C           32.85245955960890       -3.33918748594934        0.82162240089164
C           32.83871653975217       -4.77657310650941        1.17312392885353
C           33.63811700196459       -5.25882368850034        2.21229311237665
C           33.62217510252383       -6.60029728278624        2.54894533888355
C           32.80679538730961       -7.49026551394705        1.84342636660686
C           32.78983275156041       -8.87185420115223        2.18622152144996
N           32.77591054686442       -9.98856062939049        2.46366428474442
C           32.00801777265600       -7.01337761859594        0.79984843641261
C           32.02363300162758       -5.66933960637925        0.47321685014051
C           31.66972669142853       -2.61755483527690        0.89288683335215
C           30.42296348770334       -3.15695480225556        1.34559698949329
C           29.47818250381244       -2.21785391431801        1.09832872120564
N           31.49885105279594       -1.32878349275725        0.44215127456505
C           30.15108955045624       -1.10642481424570        0.50478714910108
C           29.48857898194112       -0.01541317830555       -0.06247707528372
C           30.18571329611985        1.06442874414730       -0.60993950226480
C           29.55267338246175        2.16947833969872       -1.25611247752993
C           30.51752649947062        3.09515195011726       -1.47676393229696
C           31.73507208238202        2.55594170789621       -0.95043178172250
N           31.52945237447070        1.27931852450741       -0.48024907195995
C           32.91554964563858        3.27314680935328       -0.81923243353097
C           32.93115726856370        4.70589408600106       -1.18848122985365
C           33.80412546674130        5.17507290443643       -2.17301889872845
C           33.81755074901540        6.51320687348516       -2.52295408608937
C           32.95770366538967        7.41300965655116       -1.88601284626753
C           32.97102609053616        8.79131115948994       -2.24186836974763
N           32.98389345385952        9.90563326450367       -2.52864244149629
C           32.08485502217810        6.94925701337485       -0.89734183663312
C           32.07224014563658        5.60866048258763       -0.55702110567810
C           34.08148502610057        2.68368367950162       -0.34822333418267
C           35.31417173002291        3.38535829049908       -0.13805082497608
C           36.25512360927984        2.45093441579172        0.13408874288140
C           35.59489322154783        1.18146488202109        0.10065732625086
N           34.25045756585295        1.34069200268108       -0.12791857871898
H           37.33321099523470       -0.02972156670095        0.18697776426416
H           37.31642349618996       -2.64793397673546        0.00742866542627
H           35.40315340900825       -4.52012570687492        0.35852922141385
H           34.26183323978805       -4.56944604868210        2.77002744854274
H           34.23931824174765       -6.96601157433463        3.36122637766561
H           31.37779341360186       -7.70116805874405        0.24837530257077
H           31.41118929846913       -5.30488430390045       -0.34375226161391
H           30.29800232364611       -4.12999132553416        1.79191305378274
H           28.41751606686140       -2.26175861139822        1.28586362894723
H           28.50305836963169        2.21768384984497       -1.49737547582000
H           30.42393319716486        4.05827664027443       -1.95135154154566
H           34.46336481300327        4.47829074771346       -2.67817833361550
H           34.49265519453826        6.86884978314781       -3.29244817788883
H           31.41986100144491        7.64456462147666       -0.39869115809812
H           31.40271747887398        5.25484654134978        0.21878635873606
H           35.43064901552535        4.45538009956082       -0.19653975181415
H           37.30629235291750        2.58743967591247        0.33203794377074
C           19.15299589016649        0.00074860337810       -0.08927194533504
C           20.37765766101369       -0.00058955244630       -0.09834886585661
C           21.71981935283288       -0.00452178206061       -0.10761432339522
C           22.95076887264447       -0.00099032426905       -0.11065701703942
C           24.28812613800482       -0.00236477346872       -0.11171658323845
C           25.51909663115167       -0.00134074567175       -0.10832257611685
C           26.86123977732753       -0.00464557995039       -0.09714803674479
C           28.08582078077553       -0.00676405515268       -0.08645270641381
