180
 energy: -311.103836783545 gnorm: 0.000495833191 xtb: 6.5.1 (b24c23e)
C           33.12853927409632        0.00122592083906       -0.09351048186859
C           33.73302356982315        0.92629076750226       -0.93698161903317
C           33.08530266454476        1.85970609551832       -1.79255203542475
C           34.05297856325183        2.57269406142547       -2.44568239331349
C           35.31748250395727        2.09314685615866       -2.00957713406215
N           35.07883630555486        1.10584401488945       -1.10214054425159
C           36.58474687521547        2.53337031902579       -2.43027722014377
C           36.61095578971165        3.58018740049750       -3.37810851028244
C           36.64105782737478        4.48841715770081       -4.18238427569703
C           36.68501691993273        5.54737838918704       -5.11753530341420
C           35.51497590467014        6.07608939142396       -5.67507234474647
C           35.61566301514112        7.11391607176726       -6.58437734617528
N           36.77775846919199        7.64220850080336       -6.95991501618931
C           37.89461063748351        7.14595524234822       -6.43346206199213
C           37.90334320331234        6.10895532857256       -5.51791531535481
C           37.81417450105741        2.02110203952844       -1.98291610909271
C           39.09649778477511        2.49272402104666       -2.46799108146326
C           40.03624961792541        1.78232197423931       -1.80933252463269
N           37.98628887420006        1.04815691875705       -1.05659417373524
C           39.32266415933555        0.88371311265728       -0.92238165691670
C           39.96972325393718        0.00840119943651       -0.03352532204910
C           39.34189406466414       -0.87858911477409        0.85978867118654
C           39.98305907005105       -1.78003366986291        1.74923705264559
C           39.01137460195821       -2.49088791629400        2.40060630957500
C           37.75163419747521       -2.04120728225476        1.92613486873116
N           37.99755466094490       -1.06533773957354        1.00355107829267
C           36.48577854419797       -2.51349843495086        2.31569579329391
C           36.46641951668677       -3.55986169577235        3.26296036338601
C           36.45936440243356       -4.47031051609628        4.06560037216763
C           36.45080698461072       -5.53593893530496        4.99375272825363
C           37.64446626022551       -6.08348388670606        5.47910471117029
C           37.58357921548092       -7.13055884239244        6.38110157055537
N           36.43847133901642       -7.64978490304835        6.81681533139950
C           35.29948205583448       -7.13432614020653        6.36092315040131
C           35.25070730529545       -6.08765244857545        5.45763866908683
C           35.25574697618552       -2.03446336849330        1.83067131031836
C           33.96728651540251       -2.54595286424603        2.26454926361962
C           33.03359683276133       -1.84180917363048        1.59283018075955
C           33.75497538343306       -0.90452745010632        0.74936777802961
N           35.09557984402014       -1.05295110235380        0.92079886971297
H           32.04331413247067       -0.00483375716985       -0.10207351712564
H           32.01615996237957        1.96314877369471       -1.88704557940887
H           33.91427770912763        3.36091741726672       -3.16824921824854
H           35.79787434487973        0.57881294841070       -0.61800153519038
H           34.54744313090040        5.67581248889732       -5.39701525520663
H           34.72423715572709        7.54214791724087       -7.03377080084736
H           38.82508142465597        7.60080291890059       -6.76089112782970
H           38.83636347951082        5.73528791637670       -5.11365087675689
H           39.23036733002599        3.26202703081623       -3.21164475094107
H           41.10956232074029        1.84443796615043       -1.89308155438106
H           41.05094749120418       -1.87053273179281        1.86598871110032
H           39.14715474089392       -3.26078547826409        3.14297650529018
H           37.28136414544407       -0.56132052633065        0.49113059550504
H           38.59923903290582       -5.69136807194551        5.14994520484080
H           38.49405844733987       -7.57492015492410        6.77287280859701
H           34.38388577325566       -7.58173809882213        6.73696929659984
H           34.30060509853227       -5.69884766590168        5.11170554477535
H           33.82941456372767       -3.33488739668100        2.98685081610539
H           31.95915078217655       -1.92480533949358        1.64018719201989
C           61.79051838726452       -0.13130454901556        0.08585545287995
C           61.18897802747216       -0.90456977768621        1.07217945444488
C           61.83950461529783       -1.69474232413896        2.05963697607664
C           60.87401417950526       -2.28799374009065        2.82600210483520
C           59.60822988055292       -1.87535193629747        2.32954487937808
N           59.84378640804113       -1.04586063178649        1.27526362280466
C           58.34235841656864       -2.23698651562315        2.82343469505538
C           58.32061181357103       -3.12006231459362        3.92564164739145
C           58.29944744926224       -3.88806579658554        4.86497556073018
C           58.25983207469721       -4.78667708903321        5.95533907418252
C           59.42969037442965       -5.34966344327968        6.47871288469328
C           59.33255677087256       -6.22763233543424        7.54352233859228
N           58.17410751265126       -6.56776032364240        8.10289366826855
C           57.05747705378668       -6.03616906418191        7.61167525120644
C           57.04536246227399       -5.14993141148637        6.54953853766209
C           57.11138170162967       -1.79902018880346        2.30729018236259
C           55.83119238592871       -2.19492831843456        2.86050034049952
C           54.88862446112638       -1.59593302392518        2.10258164933321
N           56.93486936487428       -0.97865782723075        1.24366172875770
C           55.59816230732348       -0.83846434165682        1.08971037597677
C           54.94646248594873       -0.10129519257257        0.08528938427603
C           55.57178133261440        0.64126861273579       -0.93371856941248
C           54.92820405414287        1.40407630048585       -1.94276613333801
C           55.89806770536852        1.99463051862606       -2.70724782851102
C           57.15925413173693        1.60819336481663       -2.18397939670884
N           56.91579657135130        0.79002429950987       -1.11826680722192
C           58.42421049945207        1.99660176016960       -2.65969171755425
C           58.44010050955663        2.86929681698185       -3.76908797854109
C           58.44249377962673        3.62586494108319       -4.71818796602084
C           58.44588256773064        4.50867016458861       -5.82171988105517
C           57.24972247733268        4.94504947375020       -6.40402751302460
C           57.30551404458340        5.81064870531297       -7.48165390677076
N           58.44796799429618        6.25515340618661       -7.99932048085307
C           59.58923918903400        5.84515321589627       -7.45145439070374
C           59.64309329263229        4.98104067987262       -6.37243226208763
C           59.65616387122506        1.58925285284395       -2.11758296243177
C           60.94322585375349        2.01062033648430       -2.64282984855854
C           61.87943206412205        1.41486592021076       -1.87642002403702
C           61.16097837569795        0.63311629825688       -0.88496840442684
N           59.81959217506254        0.76570184998561       -1.06310588362492
H           62.87577878480952       -0.13359639564117        0.08233293730560
H           62.90888421466050       -1.78969010323220        2.16014618242876
H           61.01519250923836       -2.95246924306491        3.66336191758563
H           59.12302494042824       -0.59736588635058        0.71980778229472
H           60.39429668681166       -5.10080917157954        6.05297046312320
H           60.22383629553719       -6.68059746117897        7.96824910862103
H           56.12996988104271       -6.33484128643549        8.09169725946552
H           56.11256647148644       -4.74094008732418        6.18044662971811
H           55.70047395546545       -2.84372219509164        3.71181960528625
H           53.81568027842546       -1.65025493854119        2.19509735411574
H           53.86006764001802        1.49005861244911       -2.05951872507648
H           55.75974309193344        2.64286977315361       -3.55749916188689
H           57.63376059471528        0.36205972409446       -0.54301528723699
H           56.29699464177286        4.60792307282896       -6.01369195189862
H           56.39306501413013        6.16501223454407       -7.95259396684030
H           60.50254634588937        6.22731691459993       -7.89834133596378
H           60.59495033790811        4.67282247088678       -5.95711680915915
H           61.07838689891822        2.67129820622649       -3.48448323825227
H           62.95385079020624        1.47798712965575       -1.94846040145510
C           41.38140204179341        0.00738484528000       -0.02500203679079
C           42.59710822536407        0.00164270081251       -0.01354791484668
C           52.31970144031660       -0.08974951463740        0.07077722735607
C           53.53580878620433       -0.09713573207993        0.08326317911443
C           44.00822891634429       -0.00396640629792       -0.00132608266115
C           44.64503869890950        0.05207164314293       -1.25477488176446
C           44.01623363097138        0.09962549961967       -2.52544504340497
C           44.99807030589009        0.09589731054818       -3.48009570741943
C           46.25035056591276        0.04766421136599       -2.81548117894664
N           45.99172624913580        0.02961799455836       -1.47551044863446
C           47.52170254803332        0.00784790382127       -3.41676540616598
C           47.54712152466083       -0.01704191517387       -4.82903387926245
C           47.56460821399804       -0.05983301393657       -6.04176415234814
C           47.60307816525136       -0.12708137445263       -7.45316306816980
C           48.81358636430094       -0.30135247686678       -8.13471000469996
C           48.80107745622224       -0.37119310021586       -9.51618706937412
N           47.68762046385582       -0.27873595306728      -10.23900977438161
C           46.53327774006583       -0.11103544007014       -9.59887076292741
C           46.43676689818241       -0.03031587631420       -8.22100541575105
C           48.75077669693555       -0.02207262148393       -2.73883391014970
C           50.03155764108772       -0.04999104405957       -3.41759322008044
C           50.97326658207893       -0.06414910888445       -2.45085551676646
N           48.92578742466418       -0.02340826048511       -1.39545316115491
C           50.26242085137469       -0.04898127559450       -1.18731983686790
C           50.90962726419173       -0.07931446561532        0.06030138768652
C           50.27252123241465       -0.09791548585036        1.31522353483294
C           50.90073461920281       -0.10206035620656        2.58691090058803
C           49.91829653713511       -0.09350186950482        3.54086066873881
C           48.66588625054695       -0.08513003776307        2.87484976988740
N           48.92550902778368       -0.09018422591924        1.53481770706118
C           47.39374858612172       -0.07509846510379        3.47564573347599
C           47.36794142197738       -0.04307438809085        4.88764903533189
C           47.35104121508022        0.00744615767159        6.10004488977231
C           47.31947357922002        0.07672289069640        7.51143457508794
C           46.10533873975621        0.11066108652043        8.20767768412866
C           46.12663764629235        0.18577420316127        9.58883383114354
N           47.25198617420915        0.22781787727774       10.29780089202364
C           48.41016287119501        0.19575774845261        9.64352100864751
C           48.49846461618392        0.12102447673632        8.26482107211433
C           46.16437854956102       -0.08221631755224        2.79725568171174
C           44.88269860860374       -0.09930083780530        3.47504180720956
C           43.94144277789531       -0.09325191540553        2.50778350300782
C           44.65361932621470       -0.06501149356388        1.24510261627733
N           45.99073454180372       -0.06564286446061        1.45431202851675
H           42.94993790087803        0.12771867711434       -2.68152312878602
H           44.87298979030099        0.12289527860410       -4.55055295443999
H           46.69806154185157       -0.00987887833824       -0.74827799031999
H           49.74332035947668       -0.38203480985008       -7.58460019420257
H           49.72529501417822       -0.50799890048032      -10.07024298268183
H           45.64461731067738       -0.03900914367254      -10.21930155216120
H           45.47513696218492        0.10555869055930       -7.74097813214508
H           50.16327168832284       -0.05661548355477       -4.48780109100440
H           52.04604401846646       -0.09056733228116       -2.55612394954571
H           51.96704985080635       -0.10568269351938        2.74470809363482
H           50.04313377985628       -0.09286746363429        4.61167878590678
H           48.21933904649246       -0.07926997025072        0.80644321375082
H           45.16581782341394        0.07946424094038        7.66927735569301
H           45.19965544099029        0.21415884437800       10.15430195471985
H           49.30871828750803        0.23226109844121       10.25276803245689
H           49.46334608012216        0.09819499012047        7.77274159674269
H           44.75042287583515       -0.11549423928207        4.54507796474827
H           42.86811266012382       -0.09905481730224        2.61152243542481
