118
 energy: -202.227539326456 gnorm: 0.000323623861 xtb: 6.5.1 (b24c23e)
C           12.44285068555364       -0.07381786598659        0.00066032725292
C           13.07313187804693       -1.30983791747287       -0.06769033230129
C           12.46562701648748       -2.59624739354535       -0.14205902921221
C           13.46251221432763       -3.52952694834297       -0.19424290729110
C           14.71020942361225       -2.84317820410844       -0.15251788788525
N           14.42419660659369       -1.51064539181690       -0.07712069290729
C           15.98161292492775       -3.40428411085310       -0.17958329502969
C           17.19808232604248       -2.73851044800620       -0.13646729660157
C           18.47977683577754       -3.42047071628024       -0.16709380484475
C           19.42461213136848       -2.45905870723720       -0.11051343421494
N           17.38457806725893       -1.39240967130925       -0.06243176559053
C           18.71619260869431       -1.19326596826589       -0.04585559086734
C           19.36544810497900        0.05741308332042        0.02003513703383
C           18.71003990097219        1.30155659247275        0.08350805103199
C           19.31225208242009        2.58680631673515        0.15242158380190
C           18.31149832927295        3.51811688457910        0.19892477082289
C           17.06806089758595        2.82742461097947        0.15952654030451
N           17.36140283019892        1.49226102040890        0.09047834109870
C           15.79755682683775        3.38915408015562        0.18575851123832
C           14.58020458668008        2.72058523658479        0.14931596220271
C           13.29216648842564        3.39619855646102        0.18354582179966
C           12.35328303465382        2.42999343893194        0.13350513752506
C           13.06855774299205        1.16546139736686        0.06770876633240
N           14.40575466060043        1.37995911784977        0.07953454463283
H           11.35806791477074       -0.08622011377330       -0.00033975139096
H           11.40124908061539       -2.76958348157294       -0.15359327630151
H           13.35727267915723       -4.60110095791679       -0.25615902656091
H           15.11457728416681       -0.76855941770492       -0.03376757451767
H           16.01787278688640       -4.48730738520137       -0.24072875311668
H           18.60576617013933       -4.49032099181663       -0.22401739029223
H           20.49779539314029       -2.56545090016878       -0.11053008884823
H           20.37591458668435        2.76338969570770        0.16480439548453
H           18.41371430502860        4.59013500095985        0.25574854857765
H           16.67362758606360        0.74731094934259        0.04940577435541
H           15.76250313479833        4.47243053573460        0.24161268346335
H           13.16080128540878        4.46567389093408        0.23859615721365
H           11.27891705332367        2.52867910112349        0.13835050449233
C           46.47345465967337        0.06393249463649       -0.01745705379822
C           45.84597163372543        1.28410777438208       -0.23447720687074
C           46.45666590252602        2.55000691224654       -0.46689107624245
C           45.46215544191077        3.47332431920144       -0.62792429736304
C           44.21276678697006        2.80111557615481       -0.49860773204891
N           44.49544500821411        1.48660636088091       -0.26331308938515
C           42.94273208696490        3.35864571893858       -0.58915744195555
C           41.72481881228586        2.70605029710797       -0.46344298556089
C           40.44449797459277        3.38236326386534       -0.57368986975094
C           39.49773027659356        2.43678150927798       -0.40114147688836
N           41.53563346766580        1.37901509210050       -0.22814964810788
C           40.20359873435798        1.18623181360199       -0.18637271749311
C           39.55212101524905       -0.04638131897284        0.02820616452191
C           40.20488156775926       -1.27545069347039        0.23979974872511
C           39.59931866551116       -2.54134215146654        0.46376198576796
C           40.59759717685108       -3.46246660599466        0.62470561185373
C           41.84280290931626       -2.78468644665326        0.50315975730407
N           41.55298275606319       -1.46720106022011        0.27132195403372
C           43.11191287483162       -3.34187470211759        0.59934864907495
C           44.33064639421816       -2.68554889849586        0.48034543706236
C           45.61733719568031       -3.35464717778235        0.59582609183059
C           46.55808345612066       -2.40434571650340        0.42410121109237
C           45.84526180180285       -1.15600931298255        0.20372969993665
N           44.50767621859303       -1.36423644448656        0.24495944818907
H           47.55825725281489        0.07313045899107       -0.02356615414826
H           47.52146173719485        2.71715502353136       -0.50357643590667
H           45.57012310865887        4.52913156169657       -0.81974120308868
H           43.80302272496051        0.75770673548032       -0.12757647204124
H           42.90894811351436        4.42654777915901       -0.78004171080181
H           40.32065785543399        4.43794374103962       -0.75839968338452
H           38.42476400126527        2.54475065128158       -0.41288474588262
H           38.53519690247821       -2.71251246199182        0.49603658420789
H           40.49254561692693       -4.51932296505170        0.81152481692095
H           42.24288685462565       -0.73458510937178        0.14113033792624
H           43.14449183236636       -4.41007404344102        0.78831516457794
H           45.74659838050386       -4.40932457894181        0.78294447273642
H           47.63224994074913       -2.50419995817081        0.43879988915728
C           21.99216443964093        0.07914734805763        0.01238418541766
C           20.76969357935617        0.07401718546350        0.01832990136683
C           23.34102580763999        0.07588174976374        0.00304031377744
C           24.56345970127041        0.05961927461278       -0.00770846571116
C           35.57643091997433       -0.06638880503529        0.02216085671143
C           34.35391270159538       -0.05693283912357        0.01536531967605
C           36.92534611859950       -0.06599032847303        0.02779064505598
C           38.14777636331233       -0.06122221037871        0.03098584314309
C           25.96688992285333        0.04693758331983       -0.01525519798905
C           26.61971060470371        1.29468637430631       -0.03783873754960
C           26.01793256179878        2.58055972595653       -0.06200428144606
C           27.02012041572467        3.51243814204357       -0.08352586150572
C           28.26184316632713        2.81997972353305       -0.07215302284327
N           27.96842493946764        1.48403533635857       -0.04469538047042
C           29.53297115971442        3.38431354020273       -0.08558987946922
C           30.75564478192056        2.73090342935998       -0.07086608115964
C           32.02973746772503        3.42750072371937       -0.08508112922523
C           32.98539855554954        2.47536345403448       -0.05955744322138
N           30.95718810192237        1.38523062608740       -0.03855109144900
C           32.29109782016845        1.20106998373605       -0.03008677074045
C           32.95043226068774       -0.04526606591387        0.00612734515492
C           32.29772525137628       -1.29292974737470        0.03201124906444
C           32.89947776541783       -2.57867495676198        0.06320014852653
C           31.89732242461361       -3.51079044971413        0.07262568895571
C           30.65562059218147       -2.81860440688096        0.04785815175969
N           30.94903695327323       -1.48258519238603        0.02458581244463
C           29.38451697656946       -3.38317762445088        0.04635556807517
C           28.16184162396134       -2.72986968219037        0.02655818308153
C           26.88777732179215       -3.42668687325447        0.02994561328490
C           25.93205787774784       -2.47437713288649        0.01426391462072
C           26.62628728400295       -1.19979538827763        0.00022505851504
N           27.96020301428785       -1.38395586567999        0.00677316654044
H           24.95444873274991        2.75820066352979       -0.06359712279681
H           26.91842855849161        4.58575915677378       -0.10523437518718
H           28.65374120769946        0.73586358856498       -0.03104637568844
H           29.56069983485708        4.46927732042578       -0.10911301503444
H           32.14369205804635        4.49991082092005       -0.11068445056155
H           34.05739599382298        2.59305520478244       -0.05979171387373
H           33.96293386185211       -2.75607889437218        0.07573089703349
H           31.99902643515726       -4.58411048086412        0.09461831751342
H           30.26378176047099       -0.73453891323018        0.00324578536402
H           29.35679743939647       -4.46825095994522        0.06448389720388
H           26.77388404323892       -4.49933405294981        0.04312904670025
H           24.86005499584236       -2.59208644120484        0.01115580141216
