80
 energy: -146.946169795583 gnorm: 0.000959255537 xtb: 6.5.1 (b24c23e)
Ni           5.24084979818190       -0.00532508254667       -0.00985342173960
C            1.82998469745209       -0.05690868826356       -0.04956415219350
C            2.50274618565582       -0.90430000706190       -0.90555138585570
C            1.84782597229700       -1.80276796028396       -1.81005655541226
C            2.82320747051794       -2.46183950227334       -2.47774504830905
C            4.07122619288488       -1.96481663224142       -1.97890647979699
N            3.86581355794439       -1.01008487152718       -1.01603427610650
C            5.30127005768168       -2.40502143813624       -2.42174073861747
C            6.50699861906916       -1.93570074177091       -1.94511739282979
C            7.77597829448573       -2.40494423941424       -2.41074027168238
C            8.71915748734319       -1.72271671070312       -1.71851352248535
N            6.66939930526627       -0.97294101689224       -0.97579681248822
C            8.02230906195476       -0.83976318218768       -0.83454594093798
C            8.67182115569082        0.03456118725305        0.04199505783637
C            7.97698487054808        0.89623077212004        0.89521105380962
C            8.62627196257211        1.79948483734730        1.79457169727219
C            7.64697465321206        2.46315055533084        2.45415108397006
C            6.40364583238787        1.96109320752464        1.95438175643471
N            6.61755095144912        0.99849169431047        0.99507239335120
C            5.17319506059339        2.39992026386202        2.39602875323952
C            3.96758836204610        1.92258096445155        1.92509978341728
C            2.69373630858269        2.38329938301590        2.39278772979413
C            1.75449371123205        1.69208094396902        1.70606715803475
C            2.45706253007199        0.81120510483179        0.82023738937657
N            3.81341827304836        0.95881435187120        0.96163124975627
H            0.74640942642559       -0.07334352064684       -0.06196445308895
H            0.77780410484882       -1.89940567720625       -1.90476451186880
H            2.72994244038970       -3.21846623641989       -3.24069121183774
H            5.32220814480537       -3.16847956914469       -3.19083404719765
H            7.90714916434406       -3.15966312655399       -3.16972077290291
H            9.79256606264910       -1.79642346713953       -1.78724570625534
H            9.69534645491142        1.89839528541634        1.89375930353012
H            7.73740496521774        3.22465707768651        3.21235405638780
H            5.15278653834739        3.16674144588820        3.16180608325865
H            2.55960910685405        3.13935839877663        3.15018545289299
H            0.68010401083032        1.75625589568412        1.77572694206821
Ni          23.84550392017423        0.00670727146757        0.00165823956704
C           27.25651443008071        0.07482750115243       -0.00439299432746
C           26.58238712765460        1.27696682013148       -0.06575031630559
C           27.23589306187908        2.55098187107430       -0.12984265887182
C           26.25947041174486        3.48688367698991       -0.17691424135991
C           25.01223239666089        2.78221622981510       -0.14121557960897
N           25.21913148225905        1.42816763217565       -0.07314364921037
C           23.78151992658284        3.40464307206186       -0.17023817731679
C           22.57650791476661        2.73539752666106       -0.13477663980033
C           21.30676754067336        3.39439309750786       -0.16342508251662
C           20.36468015623397        2.42269110920866       -0.11351628082981
N           22.41563891094940        1.37068823404555       -0.06788022304827
C           21.06295281224937        1.17543890024822       -0.05526669231571
C           20.41473841499414       -0.06186996348209        0.00328953673966
C           21.11085928325892       -1.27265645470689        0.05647158350687
C           20.46302082059588       -2.54666296154296        0.11571681262302
C           21.44338632917147       -3.48016656799172        0.16029289308533
C           22.68589916878161       -2.77109211570661        0.12823524042354
N           22.47044955822295       -1.41387065880552        0.06393869839230
C           23.91705897695860       -3.39139014060635        0.16092042946345
C           25.12191138307173       -2.72014182399343        0.13116330888005
C           26.39645702226770       -3.37434922140153        0.16606457105086
C           27.33466505883287       -2.40010855266657        0.11968550584763
C           26.63075595343827       -1.15320795496316        0.05655139817067
N           25.27460674187780       -1.35881346590035        0.06486795162204
H           28.34006881955865        0.09642238813485       -0.00444999912583
H           28.30576881153289        2.68729370809250       -0.13660845098296
H           26.35156429041440        4.56014857354533       -0.23071650460212
H           23.75944043819673        4.48699459195911       -0.22355713411101
H           21.17438840039540        4.46335593451596       -0.21495667355823
H           19.29113634299709        2.52210884547974       -0.11566321279137
H           19.39412547119818       -2.68789000399930        0.12160943995870
H           21.35413208256053       -4.55366416563290        0.21095801047027
H           23.93870033627339       -4.47380076776167        0.21346916357984
H           26.53169057022410       -4.44306326709203        0.21924429315798
H           28.40915953918297       -2.49338298396782        0.12635480859123
C           10.07690008725522        0.04327756546726        0.06153880054275
C           11.30077066519896        0.02793995348933        0.06375487942574
C           12.64423676670935        0.00829163126427        0.06421783258169
C           13.87399714335249       -0.02103069485191        0.05349082443031
C           15.21248129849360       -0.04711475500500        0.04208183069286
C           16.44229043713618       -0.07175139527231        0.02995196894312
C           17.78579859940103       -0.08180394047845        0.01871460378761
C           19.00965830474070       -0.08325597759086        0.01219364232815
