198
 energy: -330.489552888751 gnorm: 0.000780537736 xtb: 6.5.1 (b24c23e)
C           23.10847442959485       -0.13556757118837        0.02763150752538
C           23.72412158866525       -0.99918383557721        0.92493499282250
C           23.07906279373876       -1.91336661646064        1.80391219310942
C           24.04527813239573       -2.55847501552292        2.52422161824521
C           25.31130425078034       -2.05202182033001        2.11520547243681
N           25.06723844133726       -1.12330956214009        1.14334542902182
C           26.57646657643066       -2.42702139674404        2.58426310070446
C           26.61644011211508       -3.43063947546953        3.67387547364050
C           27.27927438706406       -4.64779523028147        3.49673843374833
C           27.32045747091468       -5.58756774819452        4.51106978347371
C           26.70872492851277       -5.32156251126490        5.73892598392260
N           26.71706535048504       -6.27358786609066        6.74344676588021
C           26.03802148821534       -4.10953037222844        5.92198288650201
C           25.99284135469185       -3.17947464541953        4.89850122599904
C           27.78623714854266       -1.92354622939340        2.09961306132048
C           29.08596810671180       -2.27675747051708        2.64088984142393
C           30.00016075294510       -1.60204640746972        1.91302585159402
N           27.93250644681545       -1.03233662735297        1.07983155552348
C           29.25711985023914       -0.82854005834491        0.93768507204878
C           29.88743631110673        0.00255636071522       -0.01173008243940
C           29.24604542537614        0.83215181745633       -0.95159962668799
C           29.88538881212360        1.65220474967920       -1.91827394236257
C           28.91459187180539        2.31391190903951       -2.61847175349216
C           27.65151979165203        1.92342427020418       -2.09429318197017
N           27.90413741999376        1.01929939543665       -1.09576484143629
C           26.38740859948044        2.34767242181772       -2.51908630717327
C           26.34998466330676        3.37324141467354       -3.58708604116481
C           25.70659111061673        3.11819635069667       -4.80086977117008
C           25.67354203968232        4.07341416403765       -5.80102051524927
C           26.27363363213126        5.31938804276166       -5.60140997567693
N           26.27571757333026        6.26336567648127       -6.61324127930505
C           26.92344273652906        5.58092624741030       -4.39238271904131
C           26.96073468579214        4.61624440091472       -3.40148646700048
C           25.17508293345245        1.87158686434019       -2.00577159134312
C           23.86615101473470        2.35383704954209       -2.41692621895145
C           22.95912409890921        1.65051209408990       -1.70874956191351
C           23.71285072341763        0.75107491209949       -0.85396960220119
N           25.04361931959964        0.91793487591516       -1.05357128933180
H           22.02323701441251       -0.15964184142993        0.02601262711619
H           22.01158149553065       -2.05461253304862        1.86327349743691
H           23.89958353938085       -3.32600153965496        3.26696486065328
H           25.78944551929072       -0.60743049972641        0.65186141468940
H           27.74970528273844       -4.86489462893303        2.54401490271517
H           27.82935227182533       -6.53297613291347        4.35775877446993
H           26.56512640414584       -5.91404832071878        7.67225377796031
H           27.46420234499054       -6.94707516770861        6.68528757798922
H           25.55819399768999       -3.89859495205819        6.87149957944112
H           25.48816115543394       -2.23252153882159        5.05643596462230
H           29.25483317587022       -2.93876387916628        3.47469760523679
H           31.07372732386929       -1.60248854132090        2.01393249665795
H           30.95263028343058        1.71659606091289       -2.05684499868776
H           29.05793297466538        3.00230680189843       -3.43528719273803
H           27.18463119306888        0.55272695278287       -0.55332615201973
H           25.24780910168197        2.14994995423911       -4.96813547877179
H           25.18141358174772        3.85893016950865       -6.74337584245191
H           25.54106598806009        6.15983244911914       -7.29475150952935
H           26.41892535407055        7.21322246676471       -6.30983392115520
H           27.39402398803343        6.54481725880471       -4.23244541483179
H           27.44996871999803        4.83487689670348       -2.45847130232126
H           23.68918840466148        3.13472348296279       -3.13899405100608
H           21.88269871729367        1.72003411702438       -1.73198198890658
C           66.98938556174211        0.00112665537648       -0.13883962151511
C           66.36815180755063        0.67028267605505       -1.18588142683165
C           67.00802399950229        1.32234474194517       -2.27665683310180
C           66.03726571347330        1.86590105858961       -3.07085962790874
C           64.77341766582676        1.57108740343549       -2.48571473198983
N           65.02345192448105        0.84095280386383       -1.35837025417643
C           63.50520899565127        1.92719222946743       -2.96131972285280
C           63.45940533378306        2.75925902030654       -4.18677373322524
C           62.80518786136185        2.30373235979509       -5.33418727788453
C           62.75823929740941        3.07883237431921       -6.47911795300109
C           63.35548067110393        4.34199612028041       -6.49603813022086
N           63.34136599545454        5.10528937959542       -7.65049778771706
C           64.01801535863244        4.80199610544082       -5.35509400081164
C           64.06888511834883        4.01599329902165       -4.21752106307156
C           62.29813750200946        1.55680271637071       -2.36332719081511
C           60.99426004594436        1.98412313577702       -2.83694506133452
C           60.08472772084085        1.42232937958847       -2.01362219300599
N           62.15855046648847        0.77129243743952       -1.25910934878046
C           60.83461202747011        0.66523402378606       -1.03061967233889
C           60.21049123801457       -0.06325438355848        0.00354136381630
C           60.85775177242076       -0.77025541990412        1.03506830818125
C           60.22445571520007       -1.51859981946642        2.06201612075091
C           61.19964088916002       -2.03682209279008        2.86885903057375
C           62.45948581754378       -1.61340604907062        2.36273500665831
N           62.20053861346734       -0.85794733101363        1.24891919889556
C           63.72633027734683       -1.92108252372127        2.87141173124654
C           63.77096019811621       -2.72050398100945        4.11757438028140
C           64.41892462485846       -3.95798756443966        4.14977924813974
C           64.45909039874448       -4.70798597662348        5.31153628221886
C           63.86173131540484       -4.22572381455468        6.47906033270624
N           63.86675226854806       -4.98977454495397        7.63284108198508
C           63.20742160921378       -2.99132392747388        6.45428660819337
C           63.16300003433292       -2.25255680888480        5.28544327776571
C           64.93543168771942       -1.52686009087446        2.28616475144515
C           66.24688997564678       -1.80748598254026        2.84850844673419
C           67.14950297579193       -1.27570090290945        1.99918444512630
C           66.39049504394511       -0.65691240372216        0.92739904784846
N           65.06100403633700       -0.82101171937508        1.13750915547320
H           68.07464664968084        0.00310279197843       -0.16188061864462
H           68.07538550281632        1.35837468607532       -2.42647683233279
H           66.17852161945291        2.41416662460122       -3.98816186851347
H           64.30415407011861        0.47407552886136       -0.74412325627612
H           62.34621830109540        1.32115272212865       -5.33165655450362
H           62.25600063418038        2.70989151779364       -7.36675699339663
H           63.48180008423180        6.09295427171705       -7.50954853979615
H           62.59794168883335        4.88826742437645       -8.29500749897004
H           64.48690156155023        5.77994957388789       -5.36311950814988
H           64.56698987053670        4.38966892301958       -3.32945892382035
H           60.81932930373065        2.63796364139287       -3.67593447450994
H           59.01012367245588        1.50708835839892       -2.04071396936443
H           59.15805869397448       -1.64395608679030        2.15922772944211
H           61.06142186073853       -2.66822703371189        3.73131717878928
H           62.91664745526649       -0.43763682373554        0.66568923825529
H           64.87562349924681       -4.34453719786179        3.24542162651173
H           64.95446891563523       -5.67272303023808        5.32047132284028
H           64.60386318611955       -5.67435929263982        7.68795814465032
H           63.72514738773521       -4.47372562338217        8.48665016217458
H           62.73893738818756       -2.61289039770514        7.35624777508677
H           62.67029617949349       -1.28629975817065        5.28024936028557
H           66.42832575806801       -2.32825960927991        3.77498741533796
H           68.22602771026014       -1.27557682475167        2.07071726362077
C           31.29192760361934        0.01669602433437       -0.02692755236338
C           32.51682972882929        0.02277459016190       -0.04007007234140
C           33.85865080525976        0.02555000118030       -0.04709097947230
C           35.08973313204287        0.02388506922661       -0.04859452529701
C           36.42678758305019        0.01926554052261       -0.04564771828040
C           37.65788360829450        0.01620277088942       -0.03739428353033
C           38.99946378249640        0.01618952551325       -0.02709278755868
C           40.22465671199939        0.01512329960613       -0.02793629536568
C           49.87384412147193       -0.07491756577935       -0.01607188649682
C           51.09887246039630       -0.09480667085569       -0.01251540197060
C           52.44033038526049       -0.11138387137459       -0.00339845032340
C           53.67141169465568       -0.12056392108230        0.00738426322576
C           55.00844378025117       -0.12502554339881        0.01290464995667
C           56.23952537114081       -0.11923673172609        0.02229394147069
C           57.58129706416974       -0.10591284525299        0.02312804785830
C           58.80613697676517       -0.08746440574758        0.01912732699121
C           41.62830471614637        0.01987926642664       -0.02084595108557
C           42.24841482972086       -0.28178373623092        1.20769896944346
C           41.59143056312815       -0.60877247968441        2.42155447528075
C           42.54918775871709       -0.79548747558172        3.38122264957682
C           43.81905953279939       -0.58079067036762        2.78103195994426
N           43.58672986551404       -0.28522006389614        1.46395718123327
C           45.07409776846264       -0.66720250294487        3.39801334419535
C           45.07867301722288       -0.93301808393890        4.85593595261258
C           45.71575024337289       -2.06261700591274        5.37582757950141
C           45.72305629850567       -2.30942801363086        6.73701415231223
C           45.10264258317000       -1.41707485374350        7.61540314141846
N           45.07710170773526       -1.67888169242106        8.97379098783374
C           44.45716928937572       -0.28863622187464        7.10300366604270
C           44.44566460542396       -0.05488883315807        5.73952045565647
C           46.30096173037420       -0.51901054814867        2.74764115220250
C           47.58579772131989       -0.56070483967889        3.42177761173901
C           48.52501399941009       -0.39891492757086        2.46642542829895
N           46.48037200984599       -0.30777636897822        1.41407141963800
C           47.81197704187256       -0.24201617498537        1.21472124945820
C           48.47043621470517       -0.04764882304410       -0.01688853769695
C           47.84985500603106        0.18727606307237       -1.25964429770982
C           48.50555401026124        0.36523770805036       -2.50479322962435
C           47.54816318349691        0.59575873725712       -3.45524301520591
C           46.27995876787749        0.57299443540564       -2.81480953275405
N           46.51266620911691        0.31090571568096       -1.49068656916595
C           45.02569203727022        0.76280484885792       -3.40971342516404
C           45.02011799132868        1.09698533405435       -4.85349501142224
C           45.67134879894973        2.24126451398403       -5.32137322781376
C           45.65900281379160        2.56528767911228       -6.66630797863677
C           44.99437574703592        1.74266417274229       -7.57964486951387
N           45.01885335133509        2.03798114569133       -8.93111235267022
C           44.35513810757433        0.58729903382152       -7.12208851191317
C           44.36342152936302        0.27635144905431       -5.77417022564241
C           43.79948262887618        0.66264624215991       -2.74887900045038
C           42.51691118768819        0.92087289840654       -3.37764677610925
C           41.57712109702206        0.70464940869324       -2.43368300404311
C           42.28788224830016        0.33086098150926       -1.22755951450479
N           43.61881495319884        0.32478474759565       -1.44189556096407
H           40.52282990430755       -0.69244795775333        2.53676323215008
H           42.39130877211841       -1.07025182820724        4.41131158938921
H           44.31363906643712       -0.10254475590811        0.78014143562078
H           46.19176789189162       -2.76479118614554        4.70025189590326
H           46.21189000242433       -3.19527199320867        7.12752080355704
H           45.80888002311926       -2.28706734643321        9.30486005566500
H           44.91868355631355       -0.87514887629661        9.56020061220312
H           43.97016430539413        0.40570058253044        7.77900188993205
H           43.95997209419588        0.83411371770747        5.35194677094606
H           47.72951304252539       -0.68204648472882        4.48319122616338
H           49.59752672092331       -0.37174683664358        2.57461044343608
H           49.57298389085305        0.31636061412262       -2.64769309040003
H           47.70504215838829        0.75503758240940       -4.50953530663793
H           45.78653077520186        0.21502071070910       -0.78862033317235
H           46.17220589085839        2.89616442137788       -4.61660216386341
H           46.16039248333514        3.46136710288083       -7.01550071429941
H           44.27737578431984        1.62265525338452       -9.47213413575630
H           45.19350080609539        3.00491025205657       -9.15358119583838
H           43.85102280690103       -0.06333649703736       -7.82829420413536
H           43.87251140677849       -0.62671597007740       -5.42841260380638
H           42.37539305547320        1.23874684200900       -4.39789251828706
H           40.50582582993047        0.79444175917644       -2.51718082337093
