118
 energy: -211.434040437934 gnorm: 0.000290863001 xtb: 6.5.1 (b24c23e)
Co          18.20190729437250        0.04734450631172        0.01101649907302
C           14.82664134605415        0.05480026706130        0.14342275569023
C           15.48272943963459        1.26345185345011        0.05361444416343
C           14.81716804612214        2.52728647098812       -0.03417141177558
C           15.77548565543182        3.47803886414773        0.06497707175310
C           17.02384395988049        2.79229325499434        0.22977405018775
N           16.84016397259414        1.43473793702359        0.16032533928135
C           18.22326859831272        3.42161554411690        0.53351334167154
C           18.23288783930447        4.88447423635171        0.75908567687567
C           17.45941090130392        5.44761686440481        1.77692273711830
C           17.47479707876950        6.81258659191805        2.00026205839784
C           18.26385269958247        7.64470355382183        1.20055580033517
C           18.28231498902329        9.04986506098878        1.42828540477233
N           18.29749616185066       10.18542334852572        1.61384207402425
C           19.03570161860226        7.08662990805087        0.17714193609358
C           19.02037466901390        5.72004972999505       -0.03648679479464
C           19.41295770417489        2.71710004079782        0.64583754845346
C           20.66270867759639        3.31018095133611        1.01677730601197
C           21.60923396171793        2.35356535583385        0.86477368573048
N           19.58435669804500        1.38787380799539        0.33590250452048
C           20.93413701100320        1.17800204426072        0.41326601557202
C           21.59701233780712        0.01905432760789        0.01369511896688
C           20.91233783325942       -1.12404084546827       -0.39656857989260
C           21.56277623063786       -2.29535805691644       -0.89230225236046
C           20.59815033677334       -3.22987346134530       -1.06841882840994
C           19.36345158292359       -2.63035372450315       -0.65969573914217
N           19.56176268123492       -1.31641488735997       -0.30300978745446
C           18.16785673957365       -3.32224293884182       -0.53503476821338
C           18.14530136557680       -4.77614175796786       -0.81192472943805
C           17.32479196974009       -5.28859430184619       -1.81970751402250
C           17.30549337069689       -6.64477248577195       -2.09091375973721
C           18.10593422452501       -7.51905975609082       -1.34958710616615
C           18.08709037866199       -8.91556470932918       -1.62550701316970
N           18.07160706842597      -10.04404351452093       -1.85016304931716
C           18.92452533933314       -7.01187448356860       -0.33611014155555
C           18.94383809078357       -5.65359593706356       -0.07474235726813
C           16.99107634806688       -2.69084642328754       -0.15571960425332
C           15.74882841330330       -3.37271800917748        0.06282653444773
C           14.80954196115174       -2.41947607588731        0.26442094101832
C           15.47952765443867       -1.15795219173984        0.17316399485846
N           16.82706866046821       -1.33590710424809       -0.02139291276983
H           13.74379283711559        0.05787831884314        0.18172000682639
H           13.75244503099375        2.64978871125022       -0.15291017617343
H           15.66189221399151        4.54947816846206        0.03310684112582
H           16.85676465104994        4.80407154670950        2.40783242659737
H           16.87790499415870        7.24143077004453        2.79663648356635
H           19.64544710614839        7.72922222361982       -0.44712238861781
H           19.61207041029225        5.29199410940247       -0.83775332150504
H           20.78807375738718        4.32745194127792        1.34989304717268
H           22.67173938452884        2.42242643519156        1.03401393535767
H           22.62187679866578       -2.37532863141095       -1.07745075401564
H           20.70234379288817       -4.23607428413906       -1.44024577465394
H           16.71182084187142       -4.61199234911741       -2.40439820339166
H           16.67212198475423       -7.03422058681723       -2.87931775034617
H           19.54268102607835       -7.68736150610751        0.24355724816082
H           19.57103136587273       -5.26550804295553        0.71985071699594
H           15.62687491344290       -4.44371958548371        0.06054268487422
H           13.75362101249483       -2.53804794910714        0.44798265367782
Co          29.02675202799437       -0.04645234112653        0.01431422580307
C           32.40190089917575       -0.04706910259206        0.14925729654074
C           31.74568057864075       -1.25873708862429        0.12432049034335
C           32.41106331794425       -2.52556220531385        0.10486999023973
C           31.45248196265060       -3.46950749723890        0.25396110738615
C           30.20415514793219       -2.77572686978328        0.38107536192173
N           30.38814554648026       -1.42386930795962        0.23904825170116
C           29.00451917789065       -3.38760865189659        0.71780659866405
C           28.99426395449245       -4.83630310372690        1.02125783387217
C           29.76755542748939       -5.34473257310241        2.06764582270538
C           29.75109905873141       -6.69576476282884        2.36381160520454
C           28.96112030982194       -7.56888886130234        1.61005848139873
C           28.94087614491563       -8.95969130874101        1.91328182745531
N           28.92373616677499      -10.08359103512063        2.15974349472986
C           28.18964774685391       -7.06586455521082        0.55821936529182
C           28.20607929932444       -5.71270581782311        0.27163689748446
C           27.81502963418264       -2.67773360771326        0.79226036647122
C           26.56517229855424       -3.24957513583822        1.19482973163296
C           25.61890484821571       -2.30222853631956        0.99170279130621
N           27.64395790977781       -1.36712047244482        0.41109646215835
C           26.29424315152716       -1.15299256325435        0.47718357391366
C           25.63164610058034       -0.01733680937023        0.01514816965534
C           26.31663302140227        1.10149585317666       -0.45681706708049
C           25.66654495578329        2.24410926571939       -1.01593449357065
C           26.63143297036049        3.16733944972263       -1.24280102358620
C           27.86593068626632        2.59078533012241       -0.80169327994078
N           27.66725097994487        1.29834805409852       -0.37378542128295
C           29.06160623566358        3.28827803569645       -0.71463497657213
C           29.08399388774209        4.72497191244433       -1.07020004597865
C           29.90405104508362        5.18219883243172       -2.10453553830717
C           29.92222858256882        6.52156211638341       -2.44947224641885
C           29.12119178975287        7.43442990593745       -1.75692650294817
C           29.13823843166066        8.81368594260032       -2.10916692542817
N           29.15294298332516        9.92823815999931       -2.39510365677040
C           28.30328939632532        6.98280510511019       -0.71694222767028
C           28.28507652411957        5.64084686448746       -0.38174357541543
C           30.23815472172912        2.67840433655287       -0.30098309931049
C           31.48039282329452        3.37103277916307       -0.11936310600465
C           32.41934572880059        2.43013787686889        0.13492826215007
C           31.74920240832594        1.16559206508284        0.11242548388273
N           30.40184095766413        1.33281899266595       -0.09263059120098
H           33.48471760786278       -0.04822363219335        0.18853839608241
H           33.47584500351171       -2.65441224331870       -0.00637953112474
H           31.56588402623582       -4.54113561117451        0.27950095931556
H           30.37080213578947       -4.66879990288647        2.66311829977543
H           30.34765285447718       -7.08181570122212        3.18203738892472
H           27.57937644670211       -7.74048542325131       -0.03074052837581
H           27.61479846263848       -5.32774373405552       -0.55150205453592
H           26.43956866768491       -4.24734303052438        1.58239710198010
H           24.55641987348185       -2.36151747359054        1.16466672896158
H           24.60748505933449        2.31410865696952       -1.20529899038225
H           26.52754065225227        4.15170739236696       -1.66915109114279
H           30.51749008791726        4.47515075501807       -2.65149248537126
H           30.55509393678638        6.86778408800666       -3.25818896971398
H           27.68472119044958        7.68851156486246       -0.17494319342687
H           27.65839575950045        5.29625333042731        0.43304772723590
H           31.60254966368698        4.44027524761201       -0.18039601569609
H           33.47516204636587        2.55843003536641        0.31246623645602
C           23.00667069924440        0.00583950579630        0.01346598023408
C           24.22199095555025       -0.00395663950111        0.01382016104224
