207
 energy: -328.773120248039 gnorm: 0.000495752427 xtb: 6.5.1 (b24c23e)
Co          33.63213042598707        0.11626749105655       -0.32723947740116
C           30.36410891441789        0.24865951314737       -1.09425535683166
C           30.90248752739068        1.29121685872358       -0.36765480480995
C           30.14373257234620        2.39125480695809        0.14403000915422
C           31.02427406777953        3.22291434611407        0.75015136430547
C           32.32758295036660        2.65527028928459        0.56076158411958
N           32.23029158077472        1.43413079927566       -0.05875796079794
C           33.51887718709160        3.32790802977871        0.79894901103532
C           34.74772190450474        2.76203826683327        0.48390024158765
C           35.98674053007522        3.47817941209429        0.48088851958411
C           36.95539049100900        2.58233848125438        0.17006501864147
N           34.95657821060750        1.44571080724444        0.15102749655207
C           36.31135535400851        1.31708745453876        0.01543766619382
C           36.99852060408992        0.10151098492410       -0.05603964487943
C           36.31925154130347       -1.12283820450439       -0.06960966305103
C           36.96204499461524       -2.39076417909727        0.06934869574320
C           36.00123873092806       -3.33458040827430       -0.07914183512002
C           34.77621591858217       -2.63890519042982       -0.33748379038175
C           33.63349368837302       -3.24820885758713       -0.82996228128575
C           33.62714626220315       -4.72088516966173       -1.00841853160782
C           33.60908391147275       -5.27341752088392       -2.28695524586394
C           33.60864252775880       -6.65436694131381       -2.45866142039681
C           33.57375442996965       -7.24426735927042       -3.84262854651340
C           33.62061369333266       -7.47959871060664       -1.33930946984973
C           33.64031080605882       -6.94089380316989       -0.05505231048989
C           33.66467889695942       -7.85297120598179        1.14165628103128
C           33.64785239568466       -5.56015952086495        0.10458622099754
C           32.52297595568516       -2.51133216766962       -1.22544957772416
C           31.36618928446775       -3.06379922810652       -1.86639668527379
C           30.47020238976738       -2.05676503842491       -1.99649611182694
C           31.06402683517622       -0.89970029070095       -1.39777625768047
N           32.33879417645932       -1.17825330148747       -0.97066308883163
N           34.97829548516241       -1.27763772640005       -0.26719722969676
C           33.49311372824994        4.71176432620620        1.32419631918882
C           32.81643506721312        5.72109271405503        0.64012256406568
C           32.80694413932899        7.02255830279811        1.12984890060300
C           32.09641320572903        8.11359665547935        0.37514307110403
C           33.48173736445789        7.31172600656105        2.31214947618088
C           34.16625067877884        6.31666426018896        3.00412060363873
C           34.87986856836493        6.64016329597137        4.28886974126241
C           34.16984579155660        5.01922444812189        2.50450683926243
H           29.31991632799255        0.30508688502686       -1.37889179801411
H           29.07345368516087        2.48952702197427        0.05461904701820
H           30.82350242275992        4.14633657541799        1.26867293222301
H           36.08891545503901        4.53364883090194        0.67411311930061
H           38.01573842007915        2.74701525862542        0.07158543120389
H           38.01343898202361       -2.52691434410329        0.26327025377998
H           36.10606692350025       -4.40704196009787       -0.05432186665261
H           33.61481848749303       -4.61943509815137       -3.15201568367898
H           34.04165794362918       -8.22872757087344       -3.85812951721914
H           32.53816136298968       -7.35444479535062       -4.17257615424715
H           34.08817670999411       -6.59690072361264       -4.55318239728405
H           33.61746110495040       -8.55729579972174       -1.46682462531449
H           33.52639423356047       -7.29075196080544        2.06492077133513
H           32.87618523657439       -8.60324752546568        1.06597425894544
H           34.62196114206723       -8.37557817878234        1.19497144001134
H           33.65588701265949       -5.12644784938667        1.09849073709405
H           31.26180582517960       -4.09365694408040       -2.16709512553815
H           29.47992543421005       -2.08430514681039       -2.42271740035246
H           32.31412941847926        5.49027975864517       -0.29287780655259
H           31.66503749673436        8.84204394089630        1.06225239879734
H           31.30233781620705        7.70222589145419       -0.24811021545557
H           32.80257910888254        8.63684231661184       -0.27363612846076
H           33.47746991620932        8.32628492061648        2.69727094512769
H           34.17572911679697        6.60871621602271        5.12340072322261
H           35.31279376820405        7.64015882122644        4.24952503644440
H           35.67337625730845        5.91915304274718        4.48545482705971
H           34.69028716520751        4.23258964364773        3.03979025308118
Co          55.20474940296422        0.13285479487946       -0.17431270582214
C           58.51938033852727        0.63823776565157       -0.49408940259016
C           57.91968735799085       -0.29581333710905       -1.31207841859277
C           58.62862174921099       -1.11637172251483       -2.24608506467282
C           57.69865796052250       -1.83814812411893       -2.91466390652803
C           56.41786454104039       -1.42648592568363       -2.41781049542848
N           56.57084264683704       -0.53232083995866       -1.38625426211325
C           55.20777265010932       -1.76223685691968       -3.00597130665879
C           54.00283860137263       -1.26948739723250       -2.52370363827381
C           52.74515224900968       -1.43107733508021       -3.18874519035478
C           51.80087628211663       -0.89640941277397       -2.37765939768463
N           53.83391766633361       -0.60440111028084       -1.33397417865250
C           52.48098052225791       -0.42695044596792       -1.21125880571801
C           51.82918051791277       -0.03548290923774       -0.04536218550211
C           52.52497236959151        0.31990682693334        1.10737256177684
C           51.89538218958040        0.60377137260470        2.35858729815694
C           52.86865564370218        1.03834568074904        3.19407849850180
C           54.08958529135981        1.03839090689386        2.44422598193191
C           55.25556613234997        1.65489724372353        2.87136302803227
C           55.28071590158383        2.28642673601059        4.21415563654327
C           55.36185262768566        3.67125808873135        4.33886245983800
C           55.37826279550299        4.26659914920614        5.59667313118320
C           55.48083220676509        5.76272801257595        5.72368651489342
C           55.31815674738456        3.46421435564494        6.73095896749473
C           55.23678749897559        2.07815213583887        6.62122429364042
C           55.15924017449844        1.22856854336070        7.86097181931711
C           55.21502533344849        1.49481955602423        5.35985886232891
C           56.37917536147174        1.73852594365819        2.06167421755733
C           57.57984082579191        2.43797271314944        2.41481568369689
C           58.48416002016389        2.18455020324116        1.44014309168212
C           57.84711979869554        1.30511697502814        0.50708599854560
N           56.54312931588601        1.07684651634200        0.87099916860424
N           53.87314716146985        0.54347982450394        1.17867881037542
C           55.19097465836122       -2.62694391686408       -4.20888713910121
C           55.85583212234533       -2.24145724726722       -5.37203381740811
C           55.83214007397904       -3.05339416144495       -6.50080409842906
C           56.52862364945815       -2.62124234862370       -7.76299395404943
C           55.13852412364650       -4.25928948993366       -6.45972608129109
C           54.46734025230140       -4.65656249353913       -5.30692956085514
C           53.73704714073368       -5.97190407387590       -5.26847871222462
C           54.49483057729807       -3.83495858963889       -4.18562090152097
H           59.58149386185354        0.81894190451452       -0.61049158343155
H           59.70163063762262       -1.13089619062060       -2.35409600682141
H           57.85094805788374       -2.57590000434064       -3.68575250395963
H           52.61582417660275       -1.88776527180097       -4.15656469070980
H           50.73507857073717       -0.83753373201516       -2.52980765436597
H           50.84123511361263        0.48582244139780        2.55236801534876
H           52.77671774253583        1.36320117491847        4.21773066691025
H           55.39431564313555        4.28729711571781        3.44689997527036
H           55.02911502462265        6.10642784130949        6.65439118931954
H           56.53095901537655        6.06393494557163        5.72340174249877
H           54.98683969307870        6.25752858610165        4.88710588278570
H           55.33233809959890        3.92275940427934        7.71446297148129
H           55.28835134956530        0.17349678620615        7.62035692425000
H           55.92900801598389        1.52290401889001        8.57579759189144
H           54.18706460896856        1.35639250611164        8.34172399368716
H           55.15963513906886        0.41644003144382        5.25933261162503
H           57.70484521413783        3.03441370986085        3.30401822413125
H           59.50388869766329        2.52618520381769        1.35859737018247
H           56.37801312788984       -1.29131841207306       -5.39869240896153
H           56.94061352315529       -3.48104728561904       -8.29204663708860
H           57.33538922857323       -1.92211993153982       -7.54252061147590
H           55.81822316357177       -2.12357978599593       -8.42712689779572
H           55.11867496715444       -4.89638776320535       -7.33803566140984
H           54.43363337051369       -6.77634848558944       -5.02142027690253
H           53.29161911641595       -6.19632017752813       -6.23808924126068
H           52.95115773494161       -5.95849080380512       -4.51316295609572
H           53.98415790523779       -4.13751972419291       -3.27791419703793
C           38.40242450501797        0.09915958754023       -0.04504687383178
C           39.62074910830404        0.08551833932554       -0.04284469605902
C           49.20018161064027       -0.03763704508666       -0.01478333431905
C           50.41450660129918       -0.03968412272313       -0.02036483555608
Co          44.40800055659786        0.01354322365316       -0.08053406379171
C           41.02393178736352        0.06610490975997       -0.03938199297918
C           41.72771240776883        1.25941495323090        0.15849750450473
C           41.11359860118998        2.52154406126418        0.42125999427503
C           42.08343811380362        3.46141907167496        0.30006133907858
C           43.28730558996110        2.76869476036876       -0.04623182357217
N           43.07068859988696        1.40950271645243       -0.04269959775366
C           44.45649989777569        3.38059976003286       -0.47674263982538
C           45.61093488585728        2.64806845319613       -0.73033769041032
C           46.83548254117908        3.19613348706559       -1.22975064765893
C           47.77944565578770        2.23130719579959       -1.09608805380071
N           45.78773284167016        1.33427142061223       -0.37321718901693
C           47.12576897829558        1.09448682499486       -0.52927162566764
C           47.78675687401083       -0.02222858969354       -0.01822584734336
C           47.09046653357663       -1.12309512451624        0.47809509414668
C           47.71249475511625       -2.28413249434761        1.03214413961107
C           46.74564856379684       -3.22850033159197        1.14129026945438
C           45.53737158451804       -2.64284360062747        0.64364919909886
C           44.36679842273738       -3.34502572973519        0.37848841015389
C           44.35686663473030       -4.81537082054728        0.54078771182848
C           43.42996498781118       -5.42683697693767        1.38472479943418
C           43.41790067218239       -6.80888346594793        1.53780661529605
C           42.43173579272244       -7.46161550833321        2.46842325686780
C           44.33954083933141       -7.58111379109121        0.83689465549677
C           45.26838432052068       -6.98670648093300       -0.01240854750799
C           46.26948348820657       -7.83064929272382       -0.75406295916174
C           45.27453613215346       -5.60367725972427       -0.15381545054026
C           43.21100110781956       -2.70055593207562       -0.04182289942044
C           41.98988354413917       -3.35708844929446       -0.39717605466222
C           41.04596411663745       -2.38988010345779       -0.51509245537112
C           41.69304954459844       -1.14755821841756       -0.23890978332451
N           43.02803968774249       -1.33726079863409       -0.02166283263945
N           45.74551135137479       -1.32440597868549        0.31972761193211
C           44.47434897295349        4.84690980432580       -0.67045738120955
C           45.40521078869806        5.63610304928091        0.00296045711420
C           45.42065874844299        7.01653864202910       -0.17223648252817
C           46.43693969379923        7.85423250716152        0.55577850194240
C           44.50101659591065        7.60451741511184       -1.03387071495417
C           43.56600683649147        6.82964680563900       -1.71616164212355
C           42.58992349135129        7.47811744760443       -2.66013343511494
C           43.55606409611512        5.45288078713083       -1.52915390625109
H           40.07211911647681        2.65810709241219        0.66201463277392
H           42.00061107971963        4.52845132366174        0.42785553469264
H           46.94909373021639        4.19246328463735       -1.62509267480488
H           48.82766965429647        2.27418821839038       -1.34478588097641
H           48.75833485633103       -2.35553258184614        1.28443871008198
H           46.83304610771074       -4.23450173467868        1.51835191675683
H           42.72636752329124       -4.81418867206848        1.93765737701789
H           42.14622790780199       -8.44766850165668        2.10110637623787
H           42.87999011283154       -7.58482739555942        3.45698317471239
H           41.53514505919134       -6.85093598909025        2.57564905092030
H           44.33162124702052       -8.66024589447710        0.95112032643065
H           46.60293212258681       -7.32998019127855       -1.66311653167163
H           45.84133216438687       -8.79758438766323       -1.01939124197041
H           47.14348830565148       -8.00853084037586       -0.12327569992176
H           45.98180686015887       -5.13081034281066       -0.82634551578364
H           41.87864245576046       -4.42009157207031       -0.53684396140039
H           40.00257798939860       -2.49597909148705       -0.76360613210861
H           46.10670490722704        5.16973619880399        0.68602348738228
H           46.15127697943427        8.90601073278449        0.55245517390697
H           47.41126771446001        7.76149031253679        0.07093255088644
H           46.54203732915726        7.52033864737662        1.58869263118843
H           44.50879709953168        8.68043597464583       -1.17503033608799
H           42.23844425103159        8.42924312970875       -2.25892888034595
H           41.73113680444533        6.83089798621375       -2.83793959875166
H           43.07479230625222        7.67439785515717       -3.61905040611035
H           42.84244101279756        4.83743566914025       -2.06589061031412
