292
 energy: -512.509997345862 gnorm: 0.000604286379 xtb: 6.5.1 (b24c23e)
Fe          50.65220346632720        0.18872402538550       -0.13131250306173
C           47.27982068431228        0.43854937111084       -0.34086704764484
C           47.92870657376935        1.22813827927411        0.58608179071800
C           47.25266512160125        2.13473449999441        1.46508850544109
C           48.19088007027545        2.63224252248248        2.30458840673891
C           49.44184393879109        2.04127088620951        1.92704154615176
N           49.26993844296229        1.19627374520411        0.86452594821932
C           50.63788249134519        2.25694120751412        2.60156398812016
C           51.84138077226484        1.69783617494135        2.20109129028426
C           53.09408833507014        1.95664879205031        2.84659644254759
C           54.05149536150421        1.36238554524384        2.09543227278091
N           52.03452419386779        0.92501596634226        1.08043828540866
C           53.38182740998572        0.73619705252349        0.99774106303615
C           54.05609845913067        0.09096647924488       -0.04505440169025
C           53.39589193063539       -0.56148454609078       -1.09237972748264
C           54.08095648567144       -1.29271431630101       -2.11336684924000
C           53.13058814359213       -1.92305576815129       -2.84384539695118
C           51.86541478499066       -1.55957295730357       -2.27885235404550
C           50.64864623229778       -2.05565635356084       -2.72006845480943
C           50.64222214697571       -3.06198436104729       -3.81791829010781
C           50.96322313593723       -2.69134465543443       -5.12990642328419
O           51.26407498056178       -1.37944529299948       -5.31914774057529
C           51.59370667471076       -0.89850812654284       -6.60620842122078
C           50.95356536992077       -3.63986337184560       -6.15230679696543
C           50.62697755037906       -4.95486270770230       -5.85696425166240
C           50.30606211640515       -5.34481524169733       -4.56547696963110
C           50.31035420103710       -4.39533407530889       -3.54406210168121
O           50.01431622764044       -4.67748003467754       -2.24837058120568
C           49.67548914397676       -5.99324257134737       -1.86021891558080
C           49.42940033113453       -1.64060258197165       -2.19891807966939
C           48.15842435265985       -2.07303507481890       -2.70350842410605
C           47.21392613314764       -1.34731943795282       -2.05995517580353
C           47.90839131820341       -0.48278828624779       -1.15347932052985
N           49.26063659595624       -0.68494360762225       -1.23389272679331
N           52.04600621935968       -0.70891677204136       -1.21428084395432
C           50.63206156804341        3.14833148202481        3.79429470562601
C           50.83181386915216        2.61797075539316        5.07558724590102
O           51.01313463547568        1.27265513195968        5.13857312910835
C           51.23883990427993        0.63692257033473        6.38009506126408
C           50.82722408574641        3.45262643133333        6.19284628095642
C           50.63011054418160        4.81476284630249        6.02319801248317
C           50.43515620038167        5.36287575771433        4.76440923576315
C           50.43368644691662        4.52761060851239        3.64766211610647
O           50.25845315219912        4.96969413402364        2.37452244902661
C           50.04340027543881        6.34185611999062        2.11457264121990
H           46.20195066108306        0.52978214927761       -0.41773662200172
H           46.19373800622103        2.33859823924445        1.43699527999253
H           48.06085993766361        3.33446851512613        3.11193808274086
H           53.21493748775141        2.53214531833012        3.74986894685566
H           55.11795571964065        1.34833793669103        2.25330670294513
H           55.15215301861406       -1.32782488202488       -2.23060553877351
H           53.26279739516834       -2.57711801916097       -3.69018677159380
H           50.76592861127308       -1.03911952545225       -7.31192066620328
H           51.78869497945630        0.16926601238237       -6.49064095717950
H           52.49275161833780       -1.38795007726861       -7.00029222611798
H           51.19712591420726       -3.36387637280340       -7.16956893772731
H           50.62196725458271       -5.69270898106057       -6.65181307175992
H           50.05593041584962       -6.37782296423941       -4.36388106208762
H           49.48541303607457       -5.95335780003791       -0.78606209124512
H           48.77134613317082       -6.34352741832215       -2.37302290802785
H           50.49677116732554       -6.69372337922499       -2.05484660859424
H           48.02290972061738       -2.82506405834048       -3.46400899447334
H           46.14174934521152       -1.37934816164965       -2.17445497719852
H           51.36721109394816       -0.42420649359775        6.15881713314173
H           50.38547490197247        0.76285295035200        7.05746666260870
H           52.14622032221253        1.01559370820817        6.86629143828521
H           50.97542996176239        3.05229446242043        7.18687544542937
H           50.62900688137978        5.46412331246564        6.89185342851744
H           50.28716131536421        6.42954836070824        4.66127678200835
H           50.89918031630866        6.95013831943287        2.43180871833554
H           49.92188385148192        6.43049770875467        1.03336856135710
H           49.13559931951503        6.70734441167842        2.60988626686668
Fe          83.20690637393999        0.10144088033695       -0.18138763624557
C           86.56410502835922        0.45616078175208       -0.51146177489437
C           85.92365873498940       -0.42315713514942       -1.36071443157729
C           86.60393644052473       -1.21600062943021       -2.34050396923167
C           85.65730392129613       -1.95481614777334       -2.96566397404882
C           84.39730314482397       -1.59094294644566       -2.38560456724675
N           84.57724662076870       -0.67285123598136       -1.38686751995989
C           83.17116987824396       -2.06972250092271       -2.83081725384975
C           81.96025535816406       -1.65747754120352       -2.29662720269956
C           80.68754908356863       -2.04823335410506       -2.82440366406069
C           79.74681719881066       -1.43063211234775       -2.07138645368005
N           81.79320103951909       -0.80669614443201       -1.22992514346283
C           80.44474426102738       -0.67460806047340       -1.07846516027432
C           79.79620476792603        0.01210001662877       -0.04362917068830
C           80.49138435555332        0.65091265745336        0.99195225109392
C           79.84392813212442        1.24626950044559        2.11895666306409
C           80.81962783623524        1.76577125303448        2.90078244590398
C           82.06092503152364        1.51477239196757        2.23171012165117
C           83.28376154918638        1.99259397032364        2.67438822275515
C           83.32779361139872        2.79137064122506        3.93016143187060
C           82.76568850744640        4.07417063878210        3.97867186530468
O           82.20316496494569        4.52005965830962        2.82501442245714
C           81.59328070278707        5.79366577604168        2.76955648338222
C           82.81387578656562        4.82052028012074        5.15573253855000
C           83.42054994246178        4.28011930885800        6.27951045398547
C           83.98435142335036        3.01341284195725        6.25479189082378
C           83.94148245924346        2.26883684593835        5.07636087441233
O           84.46052701006209        1.01910459463360        4.95340824436985
C           85.10274072583339        0.39908569750064        6.04875194994765
C           84.47067879076701        1.79626227912416        1.97781038064307
C           85.72301857927391        2.38439115116264        2.35476446120223
C           86.63508587714674        1.98487348656914        1.43742857967572
C           85.94082483744586        1.14179457218123        0.51064299057728
N           84.61370048246050        1.05175790351484        0.83980239157093
N           81.84296921340677        0.80378578150976        1.07437671942573
C           83.14980995100674       -3.03412700050754       -3.96491625324232
C           82.75748775729191       -4.36285086725194       -3.75435176559106
O           82.42693535523976       -4.68821152365421       -2.47754710147637
C           82.00045186605270       -5.99716741666480       -2.15855111122555
C           82.73281920150674       -5.26713733964008       -4.81579789574714
C           83.09282701039652       -4.83727288987887       -6.08400869961766
C           83.47853487689173       -3.52587977261393       -6.31744100961904
C           83.50851442214865       -2.62262456164409       -5.25548677978195
O           83.86093215555374       -1.31641548336543       -5.38557686923473
C           84.24044937056173       -0.79772393720984       -6.64389650700919
H           87.63414277406902        0.58665078591382       -0.63035360275305
H           87.66989639232186       -1.20232912469058       -2.50555993626597
H           85.78490090693464       -2.67561435417024       -3.75697150940209
H           80.54463357028015       -2.70578897221730       -3.66640529012405
H           78.67440096898285       -1.48932965848647       -2.15805611324793
H           78.77906879349626        1.25241205782773        2.28289610740460
H           80.71854100035378        2.28605022281041        3.83921057240333
H           82.31512836619412        6.59432700728835        2.97175035987403
H           81.21194763857676        5.90341589589856        1.75267559700929
H           80.75891307842215        5.87060341798943        3.47731520919093
H           82.38594654138973        5.81298571099427        5.20276365679468
H           83.45570292889393        4.85994601884742        7.19535313555234
H           84.45084663180654        2.61705222817834        7.14676675242891
H           85.43171195009033       -0.57936410526347        5.69375450446114
H           85.97597072041060        0.97392565001932        6.38055696990852
H           84.41603183752612        0.26356543980329        6.89323258013774
H           85.86861407766089        3.02428238840491        3.21013500614184
H           87.68668112322631        2.21906909725431        1.38231987907807
H           81.78619804525640       -5.99414436915472       -1.08822229048564
H           82.78278756328059       -6.73707813853445       -2.36713428440981
H           81.09013678827610       -6.26774993103794       -2.70726774176205
H           82.43613912327156       -6.29615035021952       -4.66297972336716
H           83.07116941216599       -5.54000990053160       -6.90976426942672
H           83.75019481471081       -3.21720586133934       -7.31803934044359
H           83.42420646312318       -0.87311389915843       -7.37267349287614
H           84.47756119870387        0.25503690638336       -6.47918901852247
H           85.12706135647323       -1.30884070716160       -7.03865326339327
C           55.46085284354939        0.07314418138687       -0.02563032138822
C           56.67882895876338        0.05233955224445       -0.01102008932934
C           66.32185192578562       -0.01094458242943        0.01111407745848
C           67.54166995545320       -0.00014900780888        0.00575418746078
C           77.17237456525747        0.03867688268476       -0.01708303567895
C           78.39200756119787        0.02352871968087       -0.02215440694126
Fe          61.50079696937018       -0.02188762643990        0.00716832821512
C           58.08298280728442        0.02855267764822       -0.00421007975893
C           58.74737181344981        0.02357057993300        1.22776492343929
C           58.06677194215919       -0.01370051777088        2.48390257288070
C           59.02151572651712        0.04696656303302        3.44358191969632
C           60.28012897587259        0.13172759109622        2.76721545895393
N           60.09759485313337        0.08142442602703        1.40729928932993
C           61.49580461436175        0.30439726580625        3.41623734814317
C           62.71149803808924        0.36421851536922        2.75028023418578
C           63.96487706026227        0.60247705639655        3.39942697413278
C           64.92166074875946        0.51243862386630        2.44420590437355
N           62.90027035994532        0.16419778711461        1.40410496688392
C           64.24826163863692        0.22078567535249        1.21759572881586
C           64.92104144154794       -0.01974178504288        0.01181322973969
C           64.25293883811707       -0.27599781053664       -1.19365430180984
C           64.93069040855251       -0.58572741297215       -2.41342629480706
C           63.97600740631002       -0.70241639521645       -3.36792680960664
C           62.72032254619003       -0.45644865833620       -2.72615949699372
C           61.50796094033826       -0.39756645875534       -3.39765269132498
C           61.51026643870110       -0.55201453216365       -4.87778651220924
C           60.93551037121071       -1.68186613497731       -5.47556000254365
O           60.40853437790477       -2.60026580160298       -4.62479030401371
C           59.77853791648914       -3.76278175540568       -5.12382192528141
C           60.93873973393232       -1.82316980047048       -6.86297260243544
C           61.50999342473435       -0.83196075571047       -7.64658295920979
C           62.08100347378890        0.29635213706823       -7.07765339992384
C           62.08387314288566        0.43591079835690       -5.69017427762056
O           62.60865875259230        1.50696820962421       -5.04060916569453
C           63.21085052203627        2.56175828861956       -5.76322693671488
C           60.29258561628566       -0.18996889832749       -2.75829939797724
C           59.04154187820789       -0.07894690824710       -3.44467080525573
C           58.08395106704150        0.03728744917204       -2.49297075267730
C           58.75524854790410        0.00076367190125       -1.23175405198546
N           60.10365267210337       -0.10783092642406       -1.40107756470036
N           62.90539406907075       -0.23158211876605       -1.38319297921181
C           61.49503836284248        0.44049980517098        4.89813579349973
C           62.06130898166106       -0.55918581795841        5.70121960960444
O           62.57860177555969       -1.62792225157102        5.04187746357813
C           63.18511739409281       -2.68715942012968        5.75428167453991
C           62.05950100058061       -0.43252936829492        7.08999785141222
C           61.49801432764517        0.69509994759889        7.66962449228172
C           60.93534686991280        1.69852525747604        6.89539454031478
C           60.93095619415789        1.57015993732322        5.50681303245501
O           60.41418753401369        2.50213058246796        4.66465261760746
C           59.79399886288284        3.66564597458179        5.17340081192347
H           56.99737889749216       -0.08292790775886        2.60161191220633
H           58.89540724923305        0.04070893326184        4.51392808203169
H           64.08621031525298        0.80995291121267        4.45012560937115
H           65.98794101392478        0.63288768578657        2.54680399630629
H           65.99785523822912       -0.70188386068385       -2.51189245884115
H           64.10029132532881       -0.93005010249112       -4.41410255913851
H           58.92190464250172       -3.51264981283170       -5.76139092100610
H           59.42646094896617       -4.31540953531578       -4.25084433278577
H           60.47977253295138       -4.38945167471442       -5.68816729722875
H           60.50225258560931       -2.69372735544451       -7.33396300460186
H           61.50993604949791       -0.94120776371166       -8.72557735828953
H           62.51705087860858        1.05521714822385       -7.71341322297276
H           63.55150982728443        3.28344586736087       -5.01853176609209
H           62.49408075432401        3.04875283920950       -6.43550696061419
H           64.07205293217763        2.21016458066856       -6.34435695129662
H           58.92220872906119       -0.09165327232279       -4.51573454911785
H           57.01853093256929        0.14181592947702       -2.61979879868560
H           62.47154919797666       -3.18113251883784        6.42481558449371
H           63.52519331752249       -3.40212967658596        5.00288921613530
H           64.04720660307765       -2.33820920068796        6.33558827364276
H           62.48962247813252       -1.20068775770790        7.71861995571940
H           61.49930320051462        0.79434397260975        8.74957890804613
H           60.50723581028573        2.56892951202880        7.37430643372655
H           60.50055092843812        4.28195013983909        5.74248840050161
H           58.93547005153089        3.41753852500539        5.80915805565973
H           59.44632560505766        4.22809001770979        4.30492703197130
Fe          72.35457707404876        0.02663330373509       -0.00710154435250
C           68.94198573543292        0.00895072374693        0.00198269947486
C           69.62012410246884       -0.19914147329633        1.21175792049496
C           68.96338324976877       -0.48306770248057        2.44901321071888
C           69.92415016619165       -0.48931179087637        3.40550312769807
C           71.16226506302962       -0.20216638875899        2.74719351021248
N           70.96394593055075       -0.07792727083120        1.39356155176891
C           72.36429234581253        0.02003405152618        3.40453519756486
C           73.56007777140606        0.25703275218580        2.73761709056963
C           74.79995858307450        0.54219499307155        3.39206579999287
C           75.75469103748949        0.55164291019811        2.42980404508340
N           73.75054765847764        0.15053420235645        1.38214733778674
C           75.09432514564546        0.28181777523653        1.19207014548631
C           75.76901010024871        0.04484098539489       -0.01427306972268
C           75.09145969133293       -0.19340817985251       -1.21885019044988
C           75.74997894854909       -0.45445636250909       -2.45964926244143
C           74.79029077239838       -0.46198450510858       -3.41692952510897
C           73.54943081685288       -0.19303181886335       -2.75725747375904
C           72.34650664350535        0.02338688136974       -3.41848964933507
C           72.34409607607165        0.02373480005114       -4.90573611591825
C           71.66106130980208       -0.97577939946310       -5.61323484805561
O           71.03812137087141       -1.91753352326421       -4.85846121493465
C           70.30599817616363       -2.96051292460744       -5.46961654327030
C           71.66069251543571       -0.97750218939732       -7.00765423076932
C           72.33765724197681        0.02225543953097       -7.68956387277630
C           73.01775994601807        1.02256907109430       -7.01172625849202
C           73.02400935721862        1.02246057786181       -5.61721433485798
O           73.65011174620619        1.96523087440998       -4.86670564904441
C           74.40193828581982        2.99164285102038       -5.48237475677280
C           71.14588493825839        0.23636851261503       -2.75483610885909
C           69.90144615858300        0.50946026720512       -3.40727670907269
C           68.94587715645670        0.49730937589629       -2.44565047199972
C           69.61185835859395        0.22341357878172       -1.21108916888521
N           70.95618810235605        0.11543891247038       -1.39977700404366
N           73.74527638235429       -0.07902052873972       -1.40303752193945
C           72.37382498440159        0.00130379543778        4.89173286728141
C           73.06130171601788       -1.00705296521588        5.58190749046349
O           73.68356473636825       -1.93587886051550        4.81113227218645
C           74.42791859130571       -2.98084646326522        5.40412729051130
C           73.06587912287615       -1.02923940291222        6.97620142377045
C           72.38931199538909       -0.04084318217853        7.67473305642388
C           71.70547875706009        0.96828330604755        7.01387709900705
C           71.69470877349679        0.98830991794466        5.61957547651023
O           71.06340452873165        1.93975605063441        4.88411791774754
C           70.33768806853146        2.97392239212355        5.51760186899932
H           67.90481157155472       -0.65519135128457        2.55801687776622
H           69.81364987757273       -0.66346681513558        4.46346678404633
H           74.91631249732440        0.70186697659392        4.45164597037161
H           76.81398042900140        0.71539641173705        2.53863104581575
H           76.81150113967081       -0.59893653416348       -2.57455152717606
H           74.90404108746473       -0.62234895465866       -4.47664582045910
H           69.48105617010565       -2.56929833018105       -6.07734848638187
H           69.89747459125120       -3.56145497321239       -4.65507722049906
H           70.94983568749522       -3.59099162582838       -6.09476535511317
H           71.14066490183147       -1.74712611646026       -7.56216959600645
H           72.33498120536338        0.02183485682866       -8.77404996138715
H           73.53472267486579        1.79193391283772       -7.56940802526536
H           74.82336021495168        3.58711694103093       -4.67045988201210
H           73.77000396869212        3.63269774463077       -6.10890660730890
H           75.21790286909115        2.58176163006495       -6.08972616747863
H           69.78374784172412        0.67959149234253       -4.46512415223437
H           67.88508868667881        0.65880387840242       -2.54959450377994
H           73.79256414068664       -3.62608110300420        6.02288104504512
H           74.83828240568141       -3.56634142506946        4.57931602311800
H           75.25177746355592       -2.59061372165072        6.01384224523765
H           73.58855122045418       -1.80625708931620        7.51769765984925
H           72.39493070501875       -0.05745940239751        8.75908500673944
H           71.18843066730962        1.72799320365215        7.58453589190477
H           70.98722373769652        3.59278055117630        6.14858964746795
H           69.51628259955433        2.57421076920078        6.12472150505275
H           69.92455095033975        3.58916739220394        4.71618003771549
