256
 energy: -470.063928995339 gnorm: 0.000716621227 xtb: 6.5.1 (b24c23e)
Ni          44.21743004372781        0.00512384192558       -0.01297666794632
C           40.82298937172592        0.05169932112371       -0.09759624653214
C           41.48430023955187        1.25953672741565       -0.02542669140948
C           40.81225636571447        2.52173598556319        0.03181614587620
C           41.77107454427875        3.46507021121289        0.17859657863333
C           43.02957546739251        2.77810059281030        0.20000932255338
N           42.84379109049942        1.42515085765995        0.06553599633338
C           44.24910815374364        3.40839587255220        0.40939309127525
C           44.26540957953740        4.87911489609766        0.59576544362988
C           44.65974412499563        5.43253986923307        1.81708635827117
C           44.67693664429014        6.80362157859471        1.98727127249724
C           44.30548422594534        7.65147860766591        0.93861920521522
C           44.33870425734487        9.11140830938269        1.14324314029460
O           44.67033815008416        9.63473233795130        2.17591691488481
C           43.91210738751688        7.09865087989314       -0.28234526793498
C           43.88990987780017        5.72536921685650       -0.45052330042754
C           45.45600747296742        2.72353271126449        0.44530919671012
C           46.72455990058361        3.36422131372318        0.61904891744984
C           47.66843969310433        2.40022054351101        0.50337892606128
N           45.62250488029418        1.37368117824575        0.23160252430623
C           46.97563203366651        1.17621487111928        0.25473197012138
C           47.63291611899444       -0.03413693658018        0.01850041530494
C           46.95157156826255       -1.23195249154334       -0.21233220191458
C           47.61858100284795       -2.46955323154357       -0.46407962829378
C           46.65509258555628       -3.41519330425391       -0.57087601641407
C           45.40151747872486       -2.75123918604105       -0.37744710852896
N           45.59464073838483       -1.40202736936287       -0.18511269447994
C           44.17672116978164       -3.40513262697504       -0.38260178115521
C           44.16227559593134       -4.87874308517137       -0.53547041601277
C           43.55062535236428       -5.46752020174869       -1.64538864246618
C           43.54006752116848       -6.84338613084192       -1.79147007775602
C           44.13625227161030       -7.65797119499570       -0.82596249604657
C           44.13556858931659       -9.12683694788752       -0.95619109099159
O           44.63177523602970       -9.87000789797042       -0.14898101728806
C           44.74598032791475       -7.06866411053748        0.28647533182563
C           44.76176376323577       -5.69451435892138        0.42862698520186
C           42.96584323368421       -2.73647967553255       -0.25712532943717
C           41.69103738286868       -3.39248283401832       -0.23141564299685
C           40.75203153486313       -2.42065580849815       -0.16141518064112
C           41.45391959628279       -1.17398592981461       -0.12927074203361
N           42.81105715929736       -1.37626528071958       -0.16395985768236
H           39.73959026841485        0.06621890192320       -0.12003748585333
H           39.74264151025896        2.64723636364617       -0.02201064797021
H           41.64971601855889        4.53139011317992        0.27820891340927
H           44.93927468715108        4.77692746619546        2.63397993764220
H           44.97737066231692        7.24212614860175        2.93282663822303
H           44.02833931128725        9.70327043804889        0.25583672847810
H           43.62531114529497        7.74957117155746       -1.10187663169437
H           43.59540931184482        5.29846840855167       -1.40260311800559
H           46.86548485505281        4.41858907075991        0.79130765433074
H           48.74019631095747        2.49485802943911        0.56906839719207
H           48.68733858356003       -2.58355935635200       -0.54592382630613
H           46.77193884046510       -4.46764309683860       -0.77080147924758
H           43.09729020873168       -4.83685218207462       -2.40183719203446
H           43.06844065415509       -7.29240332811390       -2.65953222689073
H           43.63405992505400       -9.50291887905316       -1.87327235488906
H           45.20356064459464       -7.70943152663631        1.03256358053463
H           45.22618794044406       -5.24041214766722        1.29662635355865
H           41.54706756071131       -4.46030527718493       -0.25838387130729
H           39.67867949320356       -2.51842583337049       -0.12860507576730
Ni          92.22366685189435       -0.03954527413275       -0.05027093331046
C           95.61832149508199       -0.07164819947097       -0.14527168488474
C           94.95825291088093       -1.27930289094435       -0.22986666434469
C           95.63219331651470       -2.53742669836120       -0.33506138368281
C           94.67439747350164       -3.49292689335789       -0.31635772492650
C           93.41460624784098       -2.81587594957723       -0.21309811814820
N           93.59875782414554       -1.45682424379811       -0.16566975074876
C           92.19382926258073       -3.46941538051140       -0.10981579373187
C           92.17641401409065       -4.95175427936012       -0.12794705880868
C           91.75953033866182       -5.66675449534533        0.99834665989222
C           91.73764866722439       -7.04810115863086        0.97776446542292
C           92.12684496782158       -7.74480580770921       -0.17101722444864
C           92.08610564154179       -9.21877813888441       -0.17087382109753
O           91.73287325309909       -9.87814702212792        0.77293801418943
C           92.54349541251668       -7.03051623847588       -1.29677001931646
C           92.57035282770174       -5.64722980248499       -1.27378568460284
C           90.98462970385539       -2.79638581585919       -0.00114939878340
C           89.71497648600155       -3.45602577465026        0.05241647751262
C           88.77060001391101       -2.48574348295812        0.06218917828175
N           90.81833082096806       -1.42992979812671       -0.01851212071040
C           89.46444416257555       -1.23831520898410        0.01176608174122
C           88.80792379398481       -0.00597333059079       -0.03573473952964
C           89.48879094682484        1.21348021248030       -0.06343465394734
C           88.82080720242048        2.47496324672493       -0.11322813967985
C           89.78369717910964        3.42604001085846       -0.06907051750934
C           91.03797380176879        2.74047107196712        0.01250083402485
N           90.84568009718261        1.37774944245189       -0.00933353833761
C           92.26308138035139        3.38849519672041        0.09512849898712
C           92.27587512898303        4.86846016348222        0.16551928162330
C           92.87155704017422        5.61870185550751       -0.85179029486882
C           92.87861847164608        7.00097270736618       -0.79020951466389
C           92.29463270150181        7.65987764737602        0.29419325046912
C           92.29121167554828        9.13173148932952        0.38501444940308
O           91.80470114242834        9.74409174311146        1.30061715741464
C           91.70097564229059        6.90871369929812        1.31393906811075
C           91.68886726631845        5.52871353999694        1.24893998734180
C           93.47476189449992        2.70986136052012        0.10424087577021
C           94.75020019561684        3.35670057832703        0.20922652715948
C           95.68929565424988        2.38586108039054        0.12860712023838
C           94.98699872494669        1.14657011472624       -0.00863473457930
N           93.62970749739407        1.35053010660548       -0.00194944152818
H           96.70164380886658       -0.08194612159044       -0.17344084754682
H           96.70223465939141       -2.65357888859281       -0.40018591494075
H           94.79698166227863       -4.56301630948305       -0.35618098676121
H           91.46535957935083       -5.12876206414785        1.89238838112674
H           91.41924869513085       -7.61153863182829        1.84826877578925
H           92.41201913622623       -9.68390605672938       -1.12562594255574
H           92.84415644333627       -7.56342657902424       -2.19297929649123
H           92.88223142351576       -5.09443528257150       -2.15274802597670
H           89.57408453195005       -4.52430552687188        0.06466819329226
H           87.69810678651265       -2.58915895887753        0.09367362440832
H           87.75188920922673        2.59980990450044       -0.17446492753568
H           89.66604195807101        4.49680442984624       -0.09857766215500
H           93.31485551870973        5.10992499125568       -1.70037810278510
H           93.33768820192279        7.57641785556307       -1.58752296827465
H           92.77960183192995        9.64244183630363       -0.47211784261602
H           91.25261011868636        7.42908456588521        2.15345432759381
H           91.23663890756414        4.94824086928396        2.04509171059066
H           94.89452481174331        4.41749635850208        0.33400009681103
H           96.76300014934837        2.47891472507191        0.16350825950837
C           52.83400088561260       -0.06547915612053        0.00852965608147
C           51.60609408310211       -0.06250160353051        0.01070760678005
C           50.26132241679344       -0.05582798356245        0.01333535096928
C           49.03798852751276       -0.04711380686073        0.01613536602540
C           54.17863325217045       -0.06547508506947        0.00681705361897
C           55.40215855402420       -0.06364610544430        0.00776781524306
C           68.83349726174298       -0.02212246873585       -0.03404913893586
C           67.60555879179572       -0.02111505458751       -0.04606266125772
C           66.26109015117169       -0.02022337546958       -0.05296878428738
C           65.03755107363588       -0.02008368003454       -0.05410434152118
C           70.17795289873487       -0.02182357207153       -0.02392907240661
C           71.40139951075007       -0.02340416035335       -0.01018667889369
C           84.83452465228156        0.02179011288000       -0.06694832004351
C           83.60681845508917        0.02455881599740       -0.07237228522806
C           82.26197285135142        0.02458706282663       -0.07154944074781
C           81.03865286424139        0.02101456037590       -0.06695919609527
C           86.17948214489471        0.01592426244109       -0.05777769433969
C           87.40258170604484        0.00690936489460       -0.04816360775201
Ni          60.22011034753559       -0.04552384390527       -0.00662910544656
C           56.80622445478419       -0.05924466160595        0.00589279691954
C           57.47545416864495        1.15463746301719        0.18948052987840
C           56.80348095769140        2.40466907149455        0.34641989029512
C           57.75548239725303        3.32359204638738        0.63940462378215
C           59.00555084511254        2.62775414560214        0.66800730025892
N           58.82615304390202        1.30198843538020        0.34590906286760
C           60.21125607190806        3.21193940828167        1.03493897015573
C           60.20671783616334        4.61991948271017        1.49337028168319
C           60.93151238600425        5.59297010561163        0.79872600672050
C           60.92665274331378        6.90562495140147        1.22948894160600
C           60.20256919811967        7.27412261323087        2.36807699952065
C           60.21951410157363        8.68064239151027        2.81124641874865
O           60.82918662403330        9.55206169976137        2.24651397796746
C           59.47907529555110        6.30241362257483        3.06342547540908
C           59.47875331107214        4.98924668873502        2.62774067877631
C           61.42145897535249        2.53204152233946        0.98858150571282
C           62.67025444750753        3.09090664456090        1.40849244438388
C           63.62775121837378        2.18271902772210        1.10086163001230
N           61.60761262180281        1.26834325991404        0.47617362880836
C           62.96018401901591        1.06923129299150        0.50643430655495
C           63.63356497839405       -0.02474059049029       -0.04543643736877
C           62.96082251501197       -1.12686895723390       -0.58176971167886
C           63.62806674280849       -2.23570143958692       -1.18514180789548
C           62.67573822948466       -3.16023325327778       -1.45865151413600
C           61.43062167368074       -2.61457900204923       -1.01158378018193
N           61.61217138470068       -1.34370486422176       -0.51590422336383
C           60.22915147826842       -3.31152864669888       -1.02084572410688
C           60.23520621832560       -4.72772327390146       -1.45319188126017
C           60.98698783095467       -5.67472167627840       -0.75229194750431
C           60.99143646219979       -6.99972444383741       -1.15044742576269
C           60.24904448625212       -7.40233908300392       -2.26306472213721
C           60.23871595923868       -8.80782926779033       -2.70994835559482
O           59.61686518999834       -9.20154574567834       -3.66294910035338
C           59.50027823733970       -6.45377530184924       -2.96735645519125
C           59.49046442720270       -5.13208487737109       -2.56514593742282
C           59.02282235598042       -2.73577617863230       -0.64327688411747
C           57.77916653622934       -3.44206710938677       -0.59410116747080
C           56.82110639660349       -2.52662771296995       -0.31035518257605
C           57.48358559292933       -1.26906045895577       -0.17466570753559
N           58.83436905991480       -1.40724140383894       -0.33732626438497
H           55.73938590347121        2.54480758914411        0.24604024222114
H           57.63240721622736        4.37943852056068        0.81688595558518
H           61.48473119221566        5.31204398581973       -0.09027281421343
H           61.48160667824125        7.66797642227225        0.69337197954282
H           59.61640376021268        8.87882972319122        3.72277839560247
H           58.91730023770779        6.57929119602827        3.94956979943549
H           58.92604698555784        4.23452716087160        3.17579466449839
H           62.78928883777010        4.05291070187609        1.87938371133825
H           64.69272823659280        2.24756711771306        1.25453236916028
H           64.68933573244016       -2.28660588588256       -1.36720449943443
H           62.79542994833979       -4.12459557578615       -1.92461611547258
H           61.55518979218083       -5.36644736430452        0.11810674191987
H           61.57234303700908       -7.72990412782960       -0.59644305194999
H           60.85949524814551       -9.48825849432850       -2.08899189459061
H           58.93051872860102       -6.77504697193121       -3.83266412048237
H           58.91822811855370       -4.39682930551615       -3.11944800140424
H           57.66380789279464       -4.50143539028634       -0.75471924392571
H           55.75888025468294       -2.67409694382255       -0.20118191290986
Ni          76.22006491342320       -0.00955741378296       -0.00517230828739
C           72.80546535016417       -0.02068760086440       -0.00152406418073
C           73.47451194582897        1.19037212321486        0.19907726212672
C           72.80121717370848        2.43790609452427        0.37048015176527
C           73.75298229008412        3.35540546080169        0.66785755956841
C           75.00437438895501        2.66139480791910        0.68363465404657
N           74.82542415343804        1.33752379316178        0.35316655696078
C           76.21167312979493        3.24788300318900        1.04028280506029
C           76.20768310857689        4.65664306907296        1.49715698328768
C           76.91414268106944        5.63216480209864        0.78740693586496
C           76.90764341668340        6.94613334807679        1.21419215366914
C           76.20094541370565        7.31311986513577        2.36408736726975
C           76.21449248186836        8.72158704709290        2.80159610102719
O           76.80310793758619        9.59630466369775        2.22003378915473
C           75.49684529412872        6.33861875715684        3.07517482079202
C           75.49742075158018        5.02418571027633        2.64313891224311
C           77.42341385478275        2.57182988799143        0.98145970310748
C           78.67413625723542        3.13646858986777        1.38764559803360
C           79.63146410832017        2.22960884185632        1.07608700183387
N           77.60851192107073        1.30691786663365        0.47194056141115
C           78.96189251720750        1.11131466195620        0.49291900552595
C           79.63431734640901        0.01395089772737       -0.05266736897127
C           78.96185568414056       -1.09422439330493       -0.57605354299575
C           79.63028684158962       -2.20845407765194       -1.16804219271176
C           78.67827077511321       -3.13458201280611       -1.43686138288169
C           77.43207851953346       -2.58414601459877       -0.99887012678336
N           77.61288539236291       -1.31029230545377       -0.51093121693017
C           76.22895564711627       -3.27820723655170       -1.01541967118067
C           76.23455090506684       -4.69487754389054       -1.44654275606569
C           76.97509618114456       -5.64435095201695       -0.73712955627112
C           76.97873447662651       -6.96957671166644       -1.13458014350362
C           76.24660158109953       -7.37004401076780       -2.25478144030490
C           76.23517057890921       -8.77575961367343       -2.70050761234169
O           75.62042892584033       -9.16826981954724       -3.65870229257053
C           75.50917777862230       -6.41895741236324       -2.96764471667488
C           75.50038550254490       -5.09700481713817       -2.56634872250785
C           75.02104644881058       -2.69885221541319       -0.64946982003121
C           73.77518150511777       -3.40214868213639       -0.61322610763949
C           72.81705696033740       -2.48502836790019       -0.33568013001401
C           73.48178219562629       -1.22978282082266       -0.18966185490781
N           74.83338486062470       -1.37043482665223       -0.34201615573042
H           71.73649906818314        2.57725677865236        0.27591118331773
H           73.62922656708294        4.40934458464181        0.85578831082446
H           77.45396311593960        5.35205163095958       -0.11004081220025
H           77.44773772708410        7.71063359139600        0.66610613967805
H           75.62979104892153        8.91771183819169        3.72548920788600
H           74.94880553283139        6.61441508760068        3.97021479070264
H           74.95898828750758        4.26745070582622        3.20249824373677
H           78.79422885945685        4.10115563654595        1.85272443605661
H           80.69749329562664        2.29793044850393        1.22058014625516
H           80.69207924187917       -2.26146253485759       -1.34638440523285
H           78.79879056579063       -4.10278673906699       -1.89457240591327
H           77.53518820129246       -5.33779216860181        0.13909898271305
H           77.55083605568844       -7.70170278540261       -0.57401890966706
H           76.84860856450096       -9.45774422947442       -2.07397978159169
H           74.94739863524258       -6.73850500102639       -3.83879125802925
H           74.93707119533644       -4.35982809495659       -3.12720624295988
H           73.65855407715986       -4.46081012427603       -0.77755272573588
H           71.75358083542692       -2.63007573782052       -0.23577236000851
