240
 energy: -415.694350466955 gnorm: 0.000331458159 xtb: 6.5.1 (b24c23e)
Ni          39.44846028432888       -0.00559281222502        0.06391569200665
C           36.05736305603297       -0.04437362669895        0.23508710705630
C           36.70893348230642       -1.24590787727570        0.05116941349479
C           36.03030055935395       -2.49986189620359       -0.07056160567730
C           36.98747110112265       -3.44795552448921       -0.19863808393884
C           38.25081167278593       -2.77184706420410       -0.15061848249870
N           38.06907629221379       -1.41874352997335       -0.00921487652801
C           39.47413366500719       -3.42826076977924       -0.14959470711177
C           40.68531100482485       -2.76184680573875       -0.03129786450288
C           41.95426688677448       -3.42376217900299       -0.00525811603119
C           42.89879075663741       -2.45637942167897        0.07318788178765
N           40.85291294728425       -1.39592838126417        0.02513245025922
C           42.20639804412896       -1.20702693047035        0.07661708193711
C           42.86451852642158        0.02580499036802        0.05552983581365
C           42.18327469117111        1.24494484363366       -0.00161653992974
C           42.84967867858933        2.50363031674660       -0.10750492136510
C           41.88530998082935        3.45469409024496       -0.11211946727677
C           40.63229993483780        2.77360713750824        0.01170304205528
C           39.41101748041149        3.42408875936941        0.11858102379292
C           39.39089892259423        4.90753414583984        0.12728819870007
C           38.74075758113521        5.60993594537086       -0.88791352459261
C           38.72299430057856        6.99665216992237       -0.87957004467039
C           39.34774823955646        7.69673307303741        0.14357314626542
C           39.99298107162818        7.00442676987161        1.15925250291148
C           40.01747394712120        5.61784273431526        1.15182303861526
C           38.20587694279755        2.74405516917425        0.23766586624451
C           36.94209474493528        3.39226736883931        0.43231748729542
C           36.00441033778192        2.41739132049236        0.47908251074293
C           36.69568620433284        1.17555342113197        0.31329695794778
N           38.04718683535140        1.38181184636128        0.19024340218755
N           40.82679169711976        1.41045645956749        0.04815468267203
C           39.48212919468586       -4.90940104446350       -0.25457305262128
C           39.06813724334337       -5.53440552440034       -1.43073462151564
C           39.07522984091840       -6.91800656846126       -1.52752189858954
C           39.48893890056669       -7.69094979677009       -0.45116814777169
C           39.89858087516876       -7.07515508265379        0.72360619248075
C           39.89827347663304       -5.69173900042537        0.82261940788521
H           34.97606907320608       -0.05810603115191        0.30753598120934
H           34.95856508646177       -2.61855282908580       -0.05336644492094
H           36.86439838555491       -4.51396302757292       -0.30027134555861
H           42.09383141316987       -4.49141615247973       -0.05051269098586
H           43.97095850084489       -2.56224694458201        0.11024067631724
H           43.91843271271469        2.62664608473202       -0.17661885258595
H           42.00158262095609        4.52293152891167       -0.19414474857369
H           38.26110318956061        5.06412331797279       -1.69279126538887
H           38.21933106852528        7.53298597691582       -1.67615534866023
H           39.33132537425283        8.78069782037070        0.14971035547641
H           40.47923923997595        7.54663873782803        1.96263718027313
H           40.51138396629202        5.07798564929069        1.95206076109278
H           36.80533167210358        4.45707142925430        0.52882040619672
H           34.93800261845981        2.51019007003863        0.61004854610272
H           38.75260708919618       -4.93071410130690       -2.27436468961893
H           38.75641771894173       -7.39456304193597       -2.44790826025908
H           39.49149662444197       -8.77235865502089       -0.52755088174822
H           40.21913161015385       -7.67479256573976        1.56830323316931
H           40.20842427993796       -5.21149442749342        1.74397477595554
Ni          87.48108595357691        0.05588027786867        0.06351235047596
C           90.87321695673819        0.07845341084824        0.22161477478684
C           90.22408209193780        1.28860826711176        0.09454311389858
C           90.90565986845154        2.54507755134501        0.02741638125620
C           89.95053341765917        3.50063282472167       -0.05047932215433
C           88.68554799999019        2.82628237555303       -0.02763708490173
N           88.86413039276493        1.46756676715420        0.04944286229706
C           87.46401659158313        3.48499604187275        0.00864724675144
C           86.25126558308007        2.81678014750176        0.09664253358935
C           84.98400587941872        3.48009084611714        0.15269593213460
C           84.03680565778316        2.51260250318754        0.18215366414216
N           86.08006934912932        1.45016680161737        0.08764401721484
C           84.72598268387770        1.26268229043964        0.12727213939413
C           84.06474239628277        0.03389672114149        0.04825127019787
C           84.74299010532663       -1.18360526082673       -0.05796444741931
C           84.07346311731922       -2.43530120004459       -0.21486782626106
C           85.03522644226949       -3.38820659813001       -0.25365866209530
C           86.28979323729969       -2.71588663000482       -0.10113381592170
C           87.50928848913580       -3.37346269894108       -0.02063411234142
C           87.52472311166169       -4.85620892141794       -0.06984289705654
C           88.16915357735213       -5.52072208543834       -1.11376586133958
C           88.18217319386486       -6.90677314324047       -1.15936891884688
C           87.55835746456118       -7.64402139893603       -0.16209144553488
C           86.91868687342497       -6.98959841042295        0.88183120066036
C           86.89884752506387       -5.60370042145808        0.92831037753453
C           88.71667546231731       -2.70203543519697        0.12163977068997
C           89.97944100521966       -3.36095959475922        0.28432269566069
C           90.92027030326263       -2.39131552582565        0.36442697019394
C           90.23179314974817       -1.14196396964857        0.25200413226444
N           88.87911105405266       -1.33938755632030        0.12762997963547
N           86.09893005022099       -1.35471490976260       -0.01150235013182
C           87.45950720673893        4.96947266350359       -0.02560125007048
C           87.87230354164882        5.64902137244486       -1.17155032909554
C           87.86855001418876        7.03568166128618       -1.20200465079216
C           87.45932746001537        7.75724438646588       -0.08889672177249
C           87.05068882056702        7.08694635843838        1.05601516974744
C           87.04766975703345        5.70038252248865        1.08872194617426
H           91.95491145201649        0.08621719452904        0.28877770784829
H           91.97780687542722        2.66003311255874        0.04428758191251
H           90.07615802705023        4.56990096989526       -0.10267731428767
H           84.84736112763849        4.54906362507396        0.15884193672057
H           82.96484005413826        2.61941377500367        0.22226457173442
H           83.00455040786090       -2.55254295477988       -0.29115678419189
H           84.91634278119390       -4.45217013656765       -0.37707884299854
H           88.64801999729801       -4.94563487442583       -1.89847464467591
H           88.68135681811090       -7.41340412533428       -1.97791634578357
H           87.57110525071673       -8.72745411446057       -0.19812460782231
H           86.43311100071951       -7.56102337649990        1.66512847206153
H           86.40907997422099       -5.09366150124161        1.75035640832412
H           90.11351144029500       -4.42912566406716        0.33787119336719
H           91.98705020160988       -2.49215539209123        0.48608933606361
H           88.18423988494666        5.08564087184226       -2.04391227776104
H           88.18646446724432        7.55494664224173       -2.09930951164910
H           87.45942923855631        8.84107143981761       -0.11342825139427
H           86.73352886259471        7.64626230185235        1.92917426868429
H           86.73823158727920        5.17733407847339        1.98671564413869
C           48.06599474917746        0.06024325100209        0.07909110043977
C           46.83793635473335        0.05583958372928        0.07737602492503
C           45.49301782694965        0.04829671115394        0.07291543201103
C           44.26953929357390        0.03895810247767        0.06408162936777
C           49.41080192607913        0.06205154240450        0.07615846885943
C           50.63448756927180        0.06144237519334        0.07049573024459
C           64.07868656897746        0.03644018528369        0.01093852453151
C           62.85048900446559        0.03997918736704        0.01250003253335
C           61.50584608918138        0.04079481108807        0.01465183142931
C           60.28209772188458        0.04322208299398        0.01673941594843
C           65.42332429485002        0.03207860109431        0.01097640957777
C           66.64707018615313        0.02956686561924        0.01377416959614
C           80.09118989406704        0.01185421975982        0.05424854656041
C           78.86310791767202        0.00969400604172        0.05262782477438
C           77.51829507090004        0.00905684357127        0.04911064136872
C           76.29459902853336        0.00914640295652        0.04609035562246
C           81.43613214531862        0.01793128061087        0.05404961472586
C           82.65965426499828        0.02428724832184        0.05073941807980
Ni          55.45832849100957        0.05319180943574        0.03494352315593
C           52.03877863913757        0.05941182977504        0.06121750340724
C           52.71001853617293       -1.16161776406797        0.17703962517114
C           52.03653812110945       -2.40996208202714        0.34053554709876
C           52.99005375747200       -3.37232693678421        0.31287294644452
C           54.24255111202435       -2.70699247703057        0.12384024351173
N           54.06180555667790       -1.34296572664981        0.07710051043381
C           55.45144062464905       -3.37002491503915       -0.03745133955805
C           56.66331211762203       -2.70583659405871       -0.16727937533986
C           57.91404379052723       -3.36766667581095       -0.37950629307173
C           58.87171485963728       -2.40932732425975       -0.35926842975905
N           56.84952481956855       -1.34582250450198       -0.06028718736989
C           58.20239985129812       -1.16631607475207       -0.14566161496116
C           58.87788227996767        0.04656087531327        0.02007510633478
C           58.20851035454933        1.26252218066626        0.18787574206925
C           58.88442192512775        2.50394555849372        0.38978261647086
C           57.93087159728584        3.46635653597723        0.41115678112964
C           56.67577941386015        2.80834568557377        0.21333055202580
C           55.46503479287025        3.47661572649709        0.09413062867001
C           55.46875009086587        4.95986988347372        0.11997003651659
C           54.81713153303134        5.64995126068457        1.14260568914806
C           54.82677716416347        7.03649416431138        1.16801695737240
C           55.47950013844983        7.74847901297967        0.17087935634790
C           56.12653755849048        7.06837811188219       -0.85189848307083
C           56.12545826274855        5.68180754047905       -0.87711944496010
C           54.25140117890830        2.81756426662057       -0.04615993136046
C           52.99843662181846        3.48682820788664       -0.21754138797267
C           52.04093714464707        2.52805572180581       -0.22428592055821
C           52.71241254856708        1.27784914676568       -0.06696471351154
N           54.06630780993345        1.45444313341096        0.00987596201657
N           56.85569044816590        1.44710348266048        0.11206848818035
C           55.44845217020898       -4.85309401814948       -0.07159973532639
C           54.77919813091478       -5.53447974749236       -1.08867496301547
C           54.78222595968993       -6.92088319523531       -1.12202485513430
C           55.44587471045988       -7.64142422957252       -0.13833390230049
C           56.11037191614949       -6.97002319626646        0.87898423315501
C           56.11585109308268       -5.58363010200118        0.91205694054015
H           50.97063612248105       -2.51978416237701        0.45859962108558
H           52.86711021638519       -4.43821802417322        0.41407618368737
H           58.03328026325730       -4.42853666265433       -0.52712038036794
H           59.93777734961672       -2.51849458045868       -0.47649684648288
H           59.95179318694699        2.60944765920964        0.49808561790089
H           58.05548472117231        4.52763317081859        0.55123960117881
H           54.31576342815472        5.09431869730122        1.92724408186986
H           54.32286118915215        7.56326078952827        1.97077475670883
H           55.48403988872128        8.83238164510659        0.19090478450780
H           56.63485630277636        7.62019783057131       -1.63480532686346
H           56.62291418265998        5.15130970694512       -1.68139884895111
H           52.87780313657556        4.55270019242966       -0.32166018624981
H           50.97360027495783        2.64139666840597       -0.32478638377920
H           54.26912960240922       -4.97218066235137       -1.86288808061991
H           54.26450714435606       -7.44084170906558       -1.92042925565592
H           55.44525492827331       -8.72520539877617       -0.16452364421309
H           56.62723178694227       -7.52852466748567        1.65150029670499
H           56.62684090421475       -5.05997641131347        1.71233253992824
Ni          71.47073630358511        0.01871411436659        0.03426294911357
C           68.05127801761098        0.02627078567832        0.01832584692205
C           68.72041951143963       -1.19549890783632        0.13798938842280
C           68.04433473950817       -2.44361021714090        0.29238338461914
C           68.99795154244374       -3.40610596273870        0.27949462401622
C           70.25317283144835       -2.74123839704412        0.10690525419577
N           70.07326616566802       -1.37712181722512        0.05641892683404
C           71.46378744839579       -3.40441968809685       -0.03896031375231
C           72.67676559571315       -2.74023060335360       -0.15996410316119
C           73.92860877987188       -3.40221380009118       -0.36458345618931
C           74.88601986896958       -2.44358996191335       -0.34163227980198
N           72.86222877985313       -1.38023249361813       -0.05326861175363
C           74.21566610086705       -1.20051800457586       -0.13171233650377
C           74.89028215014531        0.01153165620943        0.04324701972625
C           74.21991660608884        1.22617571926185        0.21706323654726
C           74.89428010471646        2.46557777281184        0.43559170192071
C           73.94056659629578        3.42785729758297        0.45937241723027
C           72.68713431537516        2.77200364513012        0.24503666378684
C           71.47776033914019        3.44160612868492        0.11839651071914
C           71.47953683394917        4.92455008770381        0.15650407113620
C           70.81126276028037        5.60501175066584        1.17491013418073
C           70.81511545921025        6.99133414421514        1.21022147192025
C           71.47885162512679        7.71279893551601        0.22724881289097
C           72.14321052808774        7.04235255772085       -0.79078533757126
C           72.14781386534172        5.65598204267908       -0.82585291008934
C           70.26600252328900        2.78397824296075       -0.04269155111216
C           69.01558845440164        3.45484057733711       -0.22650620797182
C           68.05803527554092        2.49651729715030       -0.25285162508321
C           68.72701391490583        1.24506752507960       -0.09457789331909
N           70.07976345305347        1.42052117964753        0.00120382815227
N           72.86766420003620        1.41171784201916        0.13292112330544
C           71.46111655282286       -4.88763349297696       -0.06556342666264
C           70.80061650648379       -5.57527828468083       -1.08415190842847
C           70.80053624075816       -6.96191057500293       -1.10671594337216
C           71.45250478745393       -7.67639089316635       -0.11086387793615
C           72.10935356986461       -6.99870629640480        0.90724837398945
C           72.11792907321956       -5.61212412500536        0.92962593829436
H           66.97685125164509       -2.55308840692405        0.39554231166700
H           68.87312335345358       -4.47181415984336        0.38015982410563
H           74.04850245323573       -4.46334064182649       -0.50992204717785
H           75.95266586808039       -2.55273896664897       -0.45348886734434
H           75.96080177815230        2.56998946382744        0.55296750537056
H           74.06410612621282        4.48771470534584        0.61074470817995
H           70.30081263230582        5.04192463394548        1.94830718483648
H           70.29758984881724        7.51047527890818        2.00928624907235
H           71.47824957973938        8.79655242608814        0.25450871736282
H           72.66022860997784        7.60163139761955       -1.56263024021871
H           72.65827193455902        5.13317774239208       -1.62702082016231
H           68.89656877164779        4.52138637216030       -0.32536639400047
H           66.99221381694650        2.61092555935065       -0.36722214894729
H           70.29940896325313       -5.01784372612054       -1.86762005297854
H           70.28906443603424       -7.48682191582833       -1.90591687057906
H           71.44865698142397       -8.76034424757797       -0.12815968285406
H           72.61730421792437       -7.55242050771389        1.68905606682906
H           72.62253441934905       -5.08344820886495        1.73064581998409
