116
 energy: -207.132541181454 gnorm: 0.000433240683 xtb: 6.5.1 (b24c23e)
Co           9.83984529837116       -0.03722606986055       -0.05687570469783
C            6.46654600662114       -0.06736570600508       -0.12170967997283
C            7.13594814838281       -1.26620395613910       -0.24051844118597
C            6.48136786509691       -2.53070089509278       -0.38704785161978
C            7.43523989418485       -3.48018499639193       -0.24417002379270
C            8.67474647658170       -2.79403911815697       -0.02325461340523
N            8.48662248325371       -1.43628909091633       -0.06579362533711
C            9.85674415540553       -3.41992064757797        0.34974650823194
C            9.86184803948375       -4.88943223084289        0.53895663515540
C           10.07700702931438       -5.45376449603126        1.79518453441418
C           10.07012859199576       -6.83376336644681        1.92475831436668
N            9.87049629517499       -7.65628074835893        0.90005349714439
C            9.66761193455241       -7.12542765432736       -0.30134800898034
C            9.65233118126676       -5.75841073228353       -0.53049788189693
C           11.03438396955628       -2.71513881976828        0.54303870370836
C           12.28559810694098       -3.32671858564740        0.87740596952773
C           13.23605699856645       -2.37123774246143        0.74381663683829
N           11.21473472754877       -1.37988811112516        0.25760102010710
C           12.56422744715107       -1.17976990809395        0.33152685932753
C           13.23350750254987       -0.01692768023573       -0.06003415813586
C           12.54496945678344        1.14727824955405       -0.41098480500719
C           13.19322480037660        2.35189548324719       -0.82211576217121
C           12.23456539242660        3.30751950602512       -0.88221011565546
C           11.00386490433357        2.68208218600416       -0.50257632602680
N           11.19891775079501        1.33972805513768       -0.27236653024443
C            9.81200923150707        3.36350873369712       -0.30409038586778
C            9.80269344348247        4.83842911945143       -0.41911542929529
C            8.99595009415977        5.48785596352272       -1.35307325818494
C            9.02725010550618        6.87142136407321       -1.42677324086050
N            9.79217421759454        7.62163514415591       -0.64025935521448
C           10.56259618612364        7.01075065159656        0.25413633570339
C           10.60446790945059        5.63316389093745        0.39957361725526
C            8.62641255301082        2.69947733585106       -0.01944963594017
C            7.37168751844383        3.35355968000438        0.21244618061018
C            6.42616664758911        2.38533838211391        0.24470183853879
C            7.10641200430249        1.14088029351886        0.05262367483193
N            8.46108002547038        1.33791344926658       -0.04410703327911
H            5.38335152502025       -0.07735693041975       -0.14986248736168
H            5.42316786314195       -2.65483707007217       -0.55357479421510
H            7.31997646762188       -4.55164629886817       -0.26484033641351
H           10.23302959539341       -4.82092809481425        2.66065619094701
H           10.23154617716984       -7.29769296118603        2.89344077878139
H            9.51028713147613       -7.82336191701077       -1.11849683857834
H            9.49509047981683       -5.37047045689617       -1.52983570318428
H           12.41199891207701       -4.36140936045351        1.15099965356004
H           14.30064411155950       -2.45267991621247        0.89268034458869
H           14.24845604214172        2.44066688379984       -1.02419781699260
H           12.33966745958675        4.34376780332310       -1.15919595294002
H            8.36635224798238        4.91644727668182       -2.02468106875450
H            8.41161471737248        7.39933903774336       -2.14920403476677
H           11.17459270725746        7.65067492681107        0.88298747323691
H           11.23973251561144        5.17900581776544        1.15065224892344
H            7.24482580866547        4.41761517385603        0.32874964534937
H            5.36110000390563        2.48423799065514        0.38151727508229
Co          28.36375094273722        0.01523074476069       -0.06769697582788
C           31.73702948198153        0.02802046733446       -0.13033443819688
C           31.06759164318741        1.13981884231757       -0.59434396588230
C           31.72185975144113        2.30692051365435       -1.10293270315913
C           30.76756974474805        3.25633381391585       -1.24372164700533
C           29.52819279513352        2.66385843806771       -0.83282038818666
N           29.71684568943011        1.35294154465065       -0.47721088458002
C           28.34576883536964        3.37062400810611       -0.65834741223587
C           28.33975941651950        4.83143956608156       -0.90578933220510
C           28.12410001423504        5.73764672555599        0.13108781693800
C           28.12992308025699        7.09539225317579       -0.14778685267832
N           28.32888634974791        7.58315593172725       -1.36799259655248
C           28.53225721132945        6.72493428051969       -2.36219275895830
C           28.54868537478259        5.35058333414059       -2.18234773086103
C           27.16829001388595        2.75194629491493       -0.26892132536958
C           25.91662252103920        3.43368639515041       -0.12770886460779
C           24.96646927315937        2.48012903510854        0.02086303798000
N           26.98856042667861        1.39128123506484       -0.15398395050431
C           25.63896428220118        1.22058167694011       -0.02704447406236
C           24.97040749385254       -0.00626018986331       -0.06554089554710
C           25.65967426481860       -1.22187691132669       -0.06376690272289
C           25.01250160793942       -2.49441227367765       -0.11012014070641
C           25.97136831503265       -3.42584462302363        0.11130040798552
C           27.20111275626656       -2.71638544433264        0.29630719230123
N           27.00534478231111       -1.36501830088117        0.12790037891203
C           28.39268467741582       -3.30988911504584        0.68652276284188
C           28.40366990658839       -4.75470606361710        1.00442571969844
C           29.21408560878938       -5.64546175381224        0.30105812132829
C           29.18656265130165       -6.99060775034850        0.63336342011838
N           28.42192217155619       -7.48163345135103        1.60331519417177
C           27.64753776563652       -6.63929184818033        2.27962423398012
C           27.60159414619850       -5.27918682951395        2.01745448817858
C           29.57749968478526       -2.59077373157979        0.76873935392929
C           30.83194194803857       -3.14835201416033        1.18291925407762
C           31.77721788053550       -2.21190965866400        0.93399155569496
C           31.09708638709314       -1.07747356290540        0.38734157096196
N           29.74254944283581       -1.29482480155090        0.35035529992881
H           32.82025943020169        0.02988323409179       -0.15881323727233
H           32.78008432069549        2.37757919787399       -1.29807745573144
H           30.88252740452063        4.27520261680561       -1.57603068330389
H           27.96845684087264        5.38486148095394        1.14359984217057
H           27.96799073798805        7.82173065754968        0.64330041958690
H           28.68903457759287        7.15407923310619       -3.34750785413771
H           28.70630036872928        4.68792639039479       -3.02492616420913
H           25.78978659478331        4.50317859040547       -0.16662829643185
H           23.90169930681370        2.60084525748878        0.13845620128080
H           23.95777459635617       -2.63863656963748       -0.28040888545081
H           25.86709579863335       -4.49800627695407        0.14589169219745
H           29.84393042685532       -5.29229022733710       -0.50674976569351
H           29.80549971409507       -7.70399552949598        0.09707694241612
H           27.03576393951336       -7.07033616838247        3.06669662552661
H           26.96329046707917       -4.62806444280173        2.60272132848559
H           30.95885458413542       -4.13257662993611        1.60366100964433
H           32.84207600202614       -2.26613270702046        1.09524041513896
C           14.63553870509347       -0.01501609245279       -0.08767716318551
C           15.86067812351863       -0.01338139135222       -0.10945957613154
C           17.20209554528126       -0.01427062204685       -0.12524182564946
C           18.43363543675472       -0.01589937950376       -0.13314370485840
C           19.77027684200466       -0.01790798697929       -0.13536561367360
C           21.00186926957166       -0.02067737679658       -0.12687283444075
C           22.34329032701678       -0.01948295505335       -0.11240319980674
C           23.56844114128882       -0.01618891744558       -0.09249382133897
