268
 energy: -446.171780488466 gnorm: 0.000611337781 xtb: 6.5.1 (b24c23e)
Ni          57.95956218488151        0.06394677066891       -0.01667022462891
C           54.56839688912473        0.11065251724783       -0.03604302036803
C           55.22424493145782        0.89134662644545        0.89375983266210
C           54.55754529546883        1.68485585199150        1.87975209350366
C           55.51637053774490        2.39716315970647        2.51835137195173
C           56.76685043144285        2.04939306466057        1.91052003682574
N           56.58178270110424        1.08885210148222        0.94793982323943
C           57.97749597488839        2.66377684383799        2.20916266522711
C           57.99017258171887        3.78998780501965        3.16935858361942
C           57.23106873997261        4.93958308219264        2.93263164636484
C           57.24699165214437        5.99361782497501        3.82620880967589
C           58.01530824477204        5.92439442898127        4.99492417835570
N           58.03710380531396        7.02644502688841        5.83713840248962
C           58.39486178394064        6.85535633492668        7.23895128850306
C           58.78046450771893        4.77929785225216        5.23402935686031
C           58.76482607226458        3.73139227182107        4.32935583946830
C           59.17714351736144        2.26239238598438        1.63314749844205
C           60.42693332505846        2.92059521613760        1.85927967858627
C           61.37630092934150        2.18006793451174        1.23784071401078
N           59.35653416827648        1.15678387433361        0.83214299289762
C           60.70792315263090        1.07921147450492        0.62381019770195
C           61.37552883207453        0.02484523356421       -0.00857200650506
C           60.68679029608836       -1.01925291130531       -0.63561439599502
C           61.33151638746022       -2.14219469618998       -1.23459105678450
C           60.36818638552500       -2.86310706049733       -1.85807639093866
C           59.13419738102482       -2.17083502836470       -1.64796471765173
N           59.33525857612837       -1.06557958231401       -0.85157373493161
C           57.93060903102519       -2.54051274987527       -2.23712549298355
C           57.92438558829781       -3.66376695191585       -3.20073858612842
C           58.71228656278939       -3.61853585697591       -4.35252433273520
C           58.70817265174185       -4.65991914362436       -5.26461664372588
C           57.92073991613953       -5.79166499617864       -5.03413523815108
N           57.84221563059798       -6.84248414013743       -5.93637801177321
C           58.94667117437556       -7.08785195334219       -6.85414488642976
C           57.12716409684588       -5.84113105883272       -3.88145355139972
C           57.12747168876789       -4.79119973362685       -2.98276123383102
C           56.73421025990972       -1.89177565388632       -1.95427250324500
C           55.48180409186283       -2.20461213365829       -2.57709092497194
C           54.53591896138899       -1.46459080190469       -1.95095070775352
C           55.21281946011371       -0.68901100600161       -0.95764123640352
N           56.56472216545679       -0.92503213904648       -0.99498698199989
H           53.48469139342370        0.12625291498179       -0.04262044209160
H           53.49217105043245        1.68317603890577        2.04784801117231
H           55.39963598698424        3.09524946531253        3.33147047854130
H           56.63974955806233        5.01233211386917        2.02636427985224
H           56.66250474971719        6.88509344309725        3.62424936179218
H           57.23003781708294        7.62654357520626        5.71622368892084
H           59.45338949253392        6.60723577618226        7.32715071966518
H           57.79896279653934        6.06758051891315        7.71403815657769
H           58.21480656223833        7.80113243640693        7.75008713496544
H           59.39148731712488        4.69969911032064        6.12477405728089
H           59.34942647805330        2.84124507353273        4.53514894576726
H           60.55315005026359        3.83458866499440        2.41611984163388
H           62.43802400422420        2.35444876646465        1.19470140936095
H           62.38762623143214       -2.34509748966728       -1.17707493023568
H           60.47440706078365       -3.78481789952447       -2.40649454786883
H           59.32072305163251       -2.74198021825007       -4.54725918770587
H           59.31762926472268       -4.58401011726287       -6.15676600155600
H           57.49637602655697       -7.69552578865372       -5.51352600341563
H           59.00346939718199       -6.28765765522196       -7.59321129970102
H           58.75188381757673       -8.02711469630123       -7.37182898018203
H           59.90357889431946       -7.15776008293625       -6.32421244473522
H           56.51013610220090       -6.71406049622786       -3.69581986741254
H           56.52101783361184       -4.85193827384742       -2.08565705984318
H           55.35489703294634       -2.89985353933467       -3.39103994564348
H           53.47318153780643       -1.43306115820354       -2.13215151690402
Ni          90.54691204906339        0.02263530932381       -0.07325372812745
C           93.93763910494056        0.00072947065953       -0.07558511469075
C           93.27949635901318       -1.07368481602340       -0.63847121497721
C           93.94202442787953       -2.21857936294820       -1.18305132600111
C           92.98407974988224       -2.98569609038324       -1.75629141001457
C           91.73850449823884       -2.30049165256081       -1.57427183239593
N           91.92438404866907       -1.15368344298092       -0.84382206021204
C           90.53305811469680       -2.70771956712051       -2.13435074269199
C           90.52179836666265       -3.88973878320882       -3.02462695656496
C           91.30871326200652       -3.92431531758096       -4.17932766328500
C           91.29697343693297       -5.02882784723487       -5.00986634460073
C           90.50508149560892       -6.14208205992862       -4.70260429766853
N           90.49014674749100       -7.20762069760971       -5.59107678974116
C           90.10666273127181       -8.53199866518070       -5.12029010840467
C           89.71165762768517       -6.11049299751717       -3.55223892330707
C           89.72327081234796       -4.99657526330284       -2.73027420516791
C           89.33699256825307       -2.04392455571670       -1.88707236332214
C           88.09328735227491       -2.38687610798461       -2.50487743818116
C           87.14198366804021       -1.61961325632849       -1.91944648779707
N           89.15340001899960       -1.03084492380270       -0.97261776363521
C           87.80320515472987       -0.80244716053927       -0.95488316516798
C           87.13133052535211        0.03149114478178       -0.05417423416132
C           87.81738726470212        0.86817513644319        0.83302915346554
C           87.17027970613086        1.69926604291093        1.79527261680540
C           88.13168488244577        2.46794212275561        2.36222889953390
C           89.36749875187309        2.11016129712024        1.73714541770202
N           89.16892749911588        1.08999844455346        0.83402642391096
C           90.57143437874429        2.76404708771638        1.97290134069031
C           90.57672142917073        3.95065104473012        2.85707843496753
C           89.79274877815151        5.06661901050813        2.55821422361303
C           89.79645515127778        6.18403401366047        3.37543491969946
C           90.57924312644690        6.20415527218509        4.53339860358014
N           90.65764920199697        7.31397512518835        5.36207767585718
C           89.55459706184202        8.26491215151282        5.39824363458034
C           91.36840875033370        5.08795157659845        4.83687850241846
C           91.36863875834419        3.98180665715401        4.00845152684278
C           91.77024005979423        2.33925554467171        1.41194179149415
C           93.02479337934668        3.00962222846722        1.58817893887605
C           93.97239923251745        2.22535120223096        1.02117906513491
C           93.29450341723430        1.08578496451223        0.48422990975587
N           91.94069818364039        1.18508909626089        0.68922865777774
H           95.02143242937119       -0.00702296609562       -0.07523511516787
H           95.00433068115717       -2.39574829669684       -1.12483520721483
H           93.09858067852730       -3.93355139037048       -2.25685551859220
H           91.91933566694182       -3.06555288616326       -4.43609294631152
H           91.90394410725202       -5.03787601455377       -5.90911775998991
H           91.31205637248333       -7.23341112629517       -6.18271203827645
H           89.04242314413200       -8.55057913099269       -4.88189344800527
H           90.68004815717664       -8.82644432319565       -4.23379893990093
H           90.29609994758201       -9.24295278271660       -5.92452803183643
H           89.08231581330537       -6.95284452850281       -3.29241348547844
H           89.11689663955589       -4.99166878328072       -1.83096661015072
H           87.97255155053014       -3.11570127148283       -3.28955979927480
H           86.08383779240987       -1.59901093246057       -2.11809105257709
H           86.11365855366850        1.68869004351651        2.00299166524939
H           88.02269923387097        3.20704567339412        3.13904796952580
H           89.18791414106970        5.06676228264423        1.65785677895047
H           89.19028762321062        7.03966552350663        3.10415479084065
H           90.99991339372400        7.08652865587814        6.28796768439805
H           89.50047558650846        8.81077401709273        4.45547217843012
H           89.74892934111685        8.97548478607678        6.20164490453316
H           88.59658678419500        7.76457658359858        5.58069332760040
H           91.98143469334362        5.09552760327441        5.73204314037233
H           91.97133557909855        3.11775583498584        4.26621244589250
H           93.15187727710234        3.95991037805917        2.08093674250500
H           95.03687042719370        2.38821064080667        0.96111900890141
C           62.78542403373682        0.01582612991308       -0.01491843795958
C           64.00309521553508        0.01578900354075       -0.02883602663518
C           73.64447101642742       -0.04397933990763        0.09200784691411
C           74.86095927462922       -0.04580532922211        0.10470952948589
C           84.50371065910957        0.02536425178674       -0.02835551636861
C           85.72145366344219        0.03006639649023       -0.04151613980040
Ni          68.82822670899210        0.01162615410628       -0.00789605636884
C           65.41260158799169        0.01480694921817       -0.02971810561811
C           66.09312094241017       -1.08525040795245       -0.56371425593945
C           65.43731636935817       -2.22305821791510       -1.12152079742582
C           66.39440384935510       -2.97941035734510       -1.71184024928856
C           67.63989406188639       -2.30983615791428       -1.49824660915082
N           67.44590225183703       -1.16327486858094       -0.76064835437462
C           68.83901657865367       -2.69566844523576       -2.08500552979010
C           68.84326539035159       -3.86253187097710       -3.00034899188911
C           68.56331887391450       -5.14557158920514       -2.52511993324404
C           68.57311249249965       -6.23193245469248       -3.38020553561160
C           68.85376098793121       -6.06349213461657       -4.74144521008726
N           68.90116074767434       -7.18993490762501       -5.55101132114815
C           68.70090441299099       -7.05094309088134       -6.98741193690171
C           69.14086559363075       -4.78196660771062       -5.21942467123046
C           69.13478025290507       -3.70012820664267       -4.35487546608191
C           70.03724527481040       -2.03504316080794       -1.84626635961973
C           71.29233955461028       -2.42178053189382       -2.41432726096707
C           72.24506440299656       -1.67451881185848       -1.80543902557981
N           70.22024601833918       -1.03491609267334       -0.91788102728756
C           71.57303248805353       -0.84023413997465       -0.86181824447986
C           72.23743654311860       -0.02838456738677        0.06228194102290
C           71.55352479651251        0.80865954820749        0.94903205930899
C           72.19780928660651        1.60961615788157        1.93907907143750
C           71.23874803133583        2.39412579124042        2.49062508899938
C           70.01211126528833        2.07435579965293        1.82809522815817
N           70.20841807159847        1.05653129472532        0.92291786149909
C           68.81949310698040        2.76480639341211        2.01147581141776
C           68.81557994081793        3.96164975763656        2.87996257960164
C           67.96050686524075        4.04347474630192        3.98093486266817
C           67.95371995254196        5.15826532323758        4.80143464711859
C           68.80924612212631        6.23128885821703        4.53495974963714
N           68.80203827037967        7.39630019167724        5.28747110883722
C           68.33274248068339        7.36163725662262        6.66616035797834
C           69.66104904880694        6.15892899027657        3.42577705036738
C           69.66736093046407        5.03863141712817        2.61694591307953
C           67.63053008116036        2.36728773645606        1.41025072727582
C           66.39876174277639        3.08565709259695        1.51575558990405
C           65.44313420804299        2.30655933066503        0.95184970397835
C           66.09172292397135        1.12225926336454        0.49197261535053
N           67.43916190339911        1.18940739784240        0.72288573238576
H           64.37617270945044       -2.40186325622856       -1.07779954249749
H           66.27278345316559       -3.90000832949631       -2.25880963026704
H           68.35378618365421       -5.29230780646851       -1.47121681019706
H           68.36395257785996       -7.22534554030416       -2.99740714417664
H           68.38214293242532       -7.96941634448935       -5.16466584748690
H           67.78332767904340       -6.49622693241134       -7.21508402773932
H           69.55187762198700       -6.53626003231814       -7.43537941071920
H           68.63331770285249       -8.05080299533409       -7.41623317478775
H           69.37123708256115       -4.62131002609624       -6.26544907839111
H           69.34383869028977       -2.70801500193952       -4.74006314839477
H           71.42210167033564       -3.18192920396265       -3.16716377517035
H           73.31091200222463       -1.68504841195477       -1.96523783020622
H           73.24887066708639        1.56644627108165        2.17466139215378
H           71.34371922266428        3.12036248353488        3.28013375703448
H           67.30570293844052        3.20962959614839        4.20980654572983
H           67.27950727894618        5.18703940964235        5.64860931898485
H           69.65385095136614        7.93453401691079        5.18360128453384
H           68.84032159366075        6.58174675241070        7.24536133065247
H           68.53562202301868        8.33383773158298        7.11538617049077
H           67.25682578812112        7.18395985768222        6.69050392470060
H           70.31856631853613        6.99264938070081        3.20283109891932
H           70.32481572516748        5.00213829125098        1.75517960309494
H           66.28749928035487        4.06191251829835        1.95852076464234
H           64.39131258266923        2.51087351008421        0.84349756893920
Ni          79.67790752040816        0.00449198530086        0.02964381928785
C           76.26844887649088       -0.04141489477895        0.10228631662218
C           76.94466694666191       -1.11677980681115       -0.48137874860996
C           76.28375395922974       -2.24922633360796       -1.04584356715688
C           77.23430520837307       -2.98276791459203       -1.67449990362944
C           78.47798533195648       -2.30284161131437       -1.47947373777299
N           78.29198006523382       -1.17516357479889       -0.71179514933592
C           79.66451245780272       -2.65407268979967       -2.11064245018418
C           79.65781251814472       -3.80050283805227       -3.05112866760617
C           79.40403767416001       -5.09634210861596       -2.59601573385907
C           79.40237730752766       -6.16447755706546       -3.47372190870476
C           79.65014781959597       -5.96521273758095       -4.83717672955589
N           79.58226641571855       -7.05910824291899       -5.68887019142894
C           80.29404424825364       -7.02351598358079       -6.95978431941328
C           79.88967462560315       -4.66793751445536       -5.29867816686578
C           79.89969343055937       -3.60498262507039       -4.41109655582120
C           80.85686900812635       -1.97323777334804       -1.89750496303744
C           82.09608738837612       -2.32262483371777       -2.52009864174403
C           83.05592825163329       -1.57007820499995       -1.92965213868393
N           81.05635109461208       -0.98973688694807       -0.95428076794950
C           82.40745590870418       -0.76925406240759       -0.94293748700433
C           83.09417824545983        0.02430848762863       -0.01676120695648
C           82.42098351726318        0.81937709870757        0.91804487695773
C           83.07879377699078        1.60554405184174        1.90994526236647
C           82.12594600801313        2.36096016368103        2.50969754151062
C           80.88533746282063        2.03726877336739        1.87704485855278
N           81.07079848952652        1.04596178464545        0.94007708992451
C           79.68891621395929        2.70150338889084        2.12464834849268
C           79.70142202351799        3.88076298154546        3.01725231110773
C           78.89564554161272        3.92756780485462        4.15660877823984
C           78.90410574425047        5.02896895130217        4.99529379904807
C           79.72572535143509        6.12308837592495        4.70898412307404
N           79.73123936382586        7.27540059286956        5.48107859146149
C           79.32529323318482        7.20980105693361        6.87851765676003
C           80.52731028837675        6.08604087357926        3.56127387841925
C           80.51884467795810        4.97916000624663        2.73427434714137
C           78.48332129602292        2.29620883628879        1.56438528651778
C           77.23968671868133        2.97942385064016        1.74596381974142
C           76.27966819660770        2.19931855878564        1.19036204046626
C           76.94015342925954        1.05105392759733        0.65900746077971
N           78.29238128174104        1.13826338564582        0.84476078931371
H           75.22548658557777       -2.44061488057535       -0.97404905883566
H           77.10929887147731       -3.89363019357446       -2.23666906695863
H           79.22699470461588       -5.26756603121775       -1.53984641068655
H           79.20999517940599       -7.16733369042136       -3.10713811986787
H           79.70958096001995       -7.93889408473294       -5.20288461442871
H           79.82157605530787       -6.30720285936208       -7.63314809069862
H           81.34708595382966       -6.75104160321761       -6.82453068007870
H           80.23303984868272       -8.01535062131600       -7.40778775260971
H           80.06517428930866       -4.47978265865808       -6.35074361304942
H           80.07857656095290       -2.60163599901655       -4.78213389560123
H           82.21259489597608       -3.06376748374207       -3.29375019005144
H           84.11410539032109       -1.55987300976235       -2.12901550547727
H           84.13558624260833        1.57488559461823        2.11504418100746
H           82.24394387945333        3.06875818856377        3.31393154836088
H           78.26805499976692        3.07730920138234        4.40084852487852
H           78.26808887202100        5.03071541825221        5.87200140389837
H           80.56740995837283        7.83138229224380        5.34808298112251
H           79.87380382801759        6.43180312471842        7.42191862076198
H           79.52873390871257        8.17898240769375        7.33402343962395
H           78.25529585542787        7.00961020217636        6.94797637220126
H           81.15710156080395        6.93675930554602        3.32290011984536
H           81.13710712561587        4.96949862407522        1.84326950945767
H           77.12366816872583        3.93500487556452        2.23076707074313
H           75.21794661648140        2.37732072360869        1.13485566940873
