124
 energy: -213.706184483099 gnorm: 0.000549217972 xtb: 6.5.1 (b24c23e)
Cu          15.37547615173441        0.05052792617737       -0.02858411157351
C           11.97276631679999        0.14267537501919        0.07855215737359
C           12.61000234295697        1.25019767143961       -0.46116963408242
C           11.93748901550669        2.38855012177737       -1.01754925470601
C           12.89891146509351        3.24874879549548       -1.43722655976901
C           14.16811022805065        2.64847682596329       -1.12894986383269
N           13.96120482349852        1.43273518830024       -0.54376948174346
C           15.41427070146681        3.21911093908060       -1.40494442746717
C           15.43029579320377        4.58421393772790       -1.98340522311004
C           16.01165201779209        4.82672592621998       -3.23018386704254
C           16.02551349793754        6.10032691662388       -3.77107611184924
C           15.45799410856206        7.16654975822839       -3.06888540407139
N           15.51448281603549        8.45106871763573       -3.58335852154843
C           14.88579464118115        6.93478858593550       -1.81560487608731
C           14.86699023301457        5.65628693110735       -1.28695079810935
C           16.64458486983873        2.60136149868574       -1.16856672113288
C           17.92511941658918        3.21393060703931       -1.38140102072566
C           18.86709051506925        2.30418545083183       -1.02398209346095
N           16.82754957996988        1.33576180937284       -0.67640223175493
C           18.16998454207582        1.13414692575440       -0.58228443532638
C           18.80004099204816       -0.03560679846574       -0.12175165789089
C           18.13746925132105       -1.17596630031273        0.36631078981862
C           18.79770087338371       -2.38097392890873        0.76853138854817
C           17.83178555506848       -3.24317435807589        1.17689169893974
C           16.57431404093283       -2.56537985791221        1.03715522443891
N           16.79369375365131       -1.31032482934028        0.53296290313642
C           15.32969865249678       -3.11640339267599        1.35173714911138
C           15.30766350753506       -4.47584214485392        1.94284775462586
C           15.95424363151770       -4.73939149648670        3.15284292825418
C           15.92722143104059       -6.00516223725750        3.71111633012407
C           15.26133522954506       -7.04555704741128        3.05823512082372
N           15.19697716399767       -8.30326983330770        3.63372953157511
C           14.61021148913114       -6.79006143979562        1.84877673387392
C           14.63400579848714       -5.51906033021894        1.30263642844789
C           14.10107952268702       -2.47950213478593        1.15188644552710
C           12.82329609237051       -3.00839832381192        1.54451666351531
C           11.88541851517728       -2.09756318965702        1.18281770492801
C           12.58191570091800       -0.99857211460727        0.57881224942456
N           13.92369708072715       -1.25516119517277        0.57488241594287
H           10.88844738234592        0.17258284697468        0.11395908179055
H           10.86628436375802        2.49753480265050       -1.08432102630993
H           12.76682336509926        4.20040089419294       -1.92667218360990
H           16.43928304470192        4.00139376219533       -3.78901352188985
H           16.47388651461950        6.27487128824678       -4.74308944357971
H           15.62530647224692        8.50309184003567       -4.58345231689246
H           14.82182527335000        9.08510615019246       -3.21824676180941
H           14.45642094944339        7.76106525436611       -1.25950487267021
H           14.42913569869870        5.48582980701541       -0.30944196238978
H           18.08063733536266        4.21842811296227       -1.74046741777766
H           19.93993127513037        2.41097282177031       -1.04518133629943
H           19.86331999095385       -2.54182446891984        0.72933896756975
H           17.95563612525323       -4.25558970757203        1.52604519328955
H           16.46511990193520       -3.93511927498948        3.67102030415562
H           16.42290459727619       -6.19423574578427        4.65711967411624
H           15.93227927906577       -8.50738750169919        4.29162850300023
H           15.00701400349018       -9.05546714946133        2.99064366656714
H           14.08929646315558       -7.59307249985966        1.33864306408093
H           14.14108349352732       -5.33284386535784        0.35464943939931
H           12.67060141631046       -3.94986670289881        2.04729182992975
H           10.81646197722231       -2.14726787647467        1.31941522949664
Cu          28.82993890844254       -0.05157405005609        0.02581798030706
C           32.23284466902169       -0.01441544964966        0.15861033608378
C           31.59586629237500       -1.07555264931366        0.78489179039391
C           32.26857089100512       -2.16776824334949        1.42693847376252
C           31.30729416424060       -2.99216514587234        1.91347607879983
C           30.03799861915110       -2.40372359977912        1.58351297474501
N           30.24470810013533       -1.24487105144912        0.89244512528147
C           28.79192197579636       -2.94895801539301        1.90706157811926
C           28.77605473471852       -4.18503464494870        2.72579774165404
C           28.19512371846272       -5.35855551203146        2.23936017861338
C           28.18126257709926       -6.51275011501606        3.00255593338714
C           28.74845686352977       -6.51590546464999        4.27936548629572
N           28.69211144837161       -7.65420865462444        5.06624386099411
C           29.32013839755311       -5.34290677442991        4.77838016774653
C           29.33890483639027       -4.19617421655890        4.00436076647908
C           27.56149684724390       -2.41102437621164        1.52256705899091
C           26.28109149444682       -2.92739058433264        1.91530458934572
C           25.33891474144122       -2.12702285459794        1.35460302959927
N           27.37824395203673       -1.30143297317812        0.73981320697297
C           26.03576705591301       -1.11187535018311        0.62388637629371
C           25.40522547014596       -0.08151919103678       -0.09598260099356
C           26.06737661705279        0.95579159088613       -0.77653668298064
C           25.40688771273068        1.95717311138452       -1.55799680085427
C           26.37263888208179        2.77410227023223       -2.05104784220524
C           27.63029780735701        2.28271668966188       -1.56418361749637
N           27.41117924808441        1.16879491629465       -0.79700628694738
C           28.87485627229549        2.84912797227647       -1.85036618595494
C           28.89661278981664        4.09327109542829       -2.65634878906649
C           28.25115596134706        5.24755029704426       -2.20624951862718
C           28.27804006297578        6.41255994280730       -2.95231837452564
C           28.94261511362355        6.44338777174280       -4.18091257708260
N           29.00685099783047        7.61823028719109       -4.91082363876126
C           29.59259017511721        5.29398001293402       -4.63743601026388
C           29.56896340839554        4.13620086787762       -3.88030725499477
C           30.10368282141689        2.33001714324310       -1.43135524283622
C           31.38149081792844        2.94895330393512       -1.65665582684921
C           32.31967268584698        2.14357841082806       -1.09877373781936
C           31.62335258846919        1.03316683895421       -0.51580804599559
N           30.28136289101062        1.17233389186407       -0.73020327082512
H           33.31721925914972       -0.00181555074723        0.20189001098205
H           33.33979097854790       -2.28375166926303        1.48038970161347
H           31.43951625413370       -3.92534953014146        2.43724462645357
H           27.76784518305325       -5.36882012480268        1.24253280414626
H           27.73314892590909       -7.41962382369379        2.61129263495319
H           28.58091587070479       -8.51649146478949        4.55699456484480
H           29.38595108656803       -7.70045566500841        5.79529011718160
H           29.74915309386505       -5.33539815336402        5.77448486083236
H           29.77635077387672       -3.28694782659949        4.40213865236068
H           26.12576125651495       -3.78194335756375        2.55383062371809
H           24.26608562802385       -2.20404748794629        1.43177690715630
H           24.34120438297513        2.01361317271171       -1.71320062991919
H           26.24862232446197        3.62481400448074       -2.70155748983104
H           27.74127292263810        5.23488770104339       -1.24906153480329
H           27.78328239359735        7.30563940565723       -2.58629177071920
H           28.27211382554827        8.27969696819390       -4.71651093534784
H           29.19595762930063        7.49813538208076       -5.89329983239128
H           30.11248985699569        5.31262227201589       -5.58915038734974
H           30.06098106313398        3.24304200054518       -4.24976348203252
H           31.53401875888473        3.88829012570121       -2.16345301081695
H           33.38874628468491        2.28433992968535       -1.06608620460648
C           21.42770426714915       -0.07460204961253       -0.14800870486168
C           20.20585170535233       -0.06218972276366       -0.14177767620599
C           22.77763362523109       -0.08106196404271       -0.14366391353949
C           23.99943675750524       -0.08469881287360       -0.12964879385087
