160
 energy: -283.583340426376 gnorm: 0.000364225483 xtb: 6.5.1 (b24c23e)
Zn          20.32336478885218       -0.02302711037615       -0.02140155493878
C           16.89568432894725       -0.03512626978002       -0.03444538557889
C           17.52617792421530       -0.91252400495000       -0.91000820252732
C           16.86017397742483       -1.81495809929093       -1.81106860432645
C           17.82534772873639       -2.49004687178023       -2.48431516692159
C           19.09196210525933       -2.00788308581657       -2.00236417432539
N           18.87546977549415       -1.05484938136337       -1.05136635973879
C           20.33971377273876       -2.44340651285126       -2.43596119309367
C           21.58037943293342       -2.00104083582613       -1.99360485060873
C           22.84899591720404       -2.47856961244940       -2.46882256945926
C           23.80883575218361       -1.79902316778700       -1.79050210132963
N           21.79233807896243       -1.04349303262066       -1.03847552027026
C           23.13545439356044       -0.90070542315070       -0.89514452160761
C           23.77671554852443       -0.01086560178196       -0.00828940226258
C           23.12254396737100        0.87437600653318        0.87367760949733
C           23.78276039154359        1.77735850951709        1.77412225609208
C           22.81302431891313        2.45002176391818        2.44519840944911
C           21.55144016260768        1.96370533429004        1.96024332025690
N           21.77739424864744        1.00777458905806        1.00671460853774
C           20.30434291776926        2.39735239832311        2.39306456785982
C           19.06302290450623        1.95307197864885        1.94997718514074
C           17.78941183218555        2.42632669547302        2.42222685486669
C           16.83416117055783        1.74443088026425        1.74172592933051
C           17.51332937221948        0.84667266027328        0.84584024286880
N           18.86047519474441        0.99847803778120        0.99746984362273
H           15.81010545405908       -0.03895722907975       -0.03855259870757
H           15.78952329488899       -1.90939701313289       -1.90593899351012
H           17.70462170432872       -3.24889789843959       -3.24179932781465
H           20.34546360585260       -3.21203013049066       -3.20280429144720
H           22.97690761951477       -3.23713341379335       -3.22518589777916
H           24.87979277284477       -1.89012855963150       -1.88059893311817
H           24.85234327301936        1.87589986902593        1.87237631680481
H           22.92982493870949        3.20933377218190        3.20260724352240
H           20.29882277658943        3.16598511368665        3.15989993160710
H           17.65757977595506        3.18437250359431        3.17866419441110
H           15.76218117022416        1.83135338896368        1.82841745016909
Zn          68.58789932416730        0.00433262488997       -0.01167382888226
C           72.01533491295044        0.03083221105010       -0.00490897928950
C           71.38174703790084        1.26840295082791       -0.03499952114771
C           72.04455494632276        2.54504263142459       -0.06382212993873
C           71.07701832402408        3.49577091460911       -0.08604413779030
C           69.81206715803060        2.81103383029811       -0.07086724411205
N           70.03196133917646        1.46555873163784       -0.04063489295444
C           68.56283062391621        3.42234029010902       -0.08295488320888
C           67.32376785794749        2.79363157653098       -0.06800002374502
C           66.05336440725635        3.46404063787055       -0.07993919434737
C           65.09599728144794        2.50173069131746       -0.05996258417326
N           67.11537391212501        1.44106137730729       -0.04076839581349
C           65.77258141077105        1.23520772621627       -0.03619163236636
C           65.13490437259789       -0.02231562745431       -0.01765114238054
C           65.79171634087992       -1.26985416098367        0.00277790453949
C           65.13468073444966       -2.54664448368940        0.02420879074592
C           66.10673243447155       -3.49407611524016        0.04680677983902
C           67.36668565229117       -2.80413658258735        0.03928661913529
N           67.13752199826784       -1.45493895190287        0.01186918649378
C           68.61527699663732       -3.41361286125838        0.05833892234015
C           69.85496786277632       -2.78308064008328        0.05120837948497
C           71.13028063411124       -3.44820017022229        0.07122137396929
C           72.08310196757880       -2.48263311284751        0.05339497739009
C           71.40078768209858       -1.21636920137267        0.02238941462001
N           70.05419119034654       -1.43435272906695        0.02252041051326
H           73.10089405741212        0.03920791517142       -0.00260564822876
H           73.11486907193007        2.68156166376186       -0.06640349910509
H           71.19505222743173        4.56800773646915       -0.11053429982716
H           68.55426938140756        4.50781087152025       -0.10613686745665
H           65.92276607516385        4.53472759928777       -0.10114432855628
H           64.02471461810373        2.62712638190505       -0.06176012259625
H           64.06544543793814       -2.68848071585343        0.02245928971265
H           65.99262447603645       -4.56666528707513        0.06716538400794
H           68.62342746267448       -4.49909670454665        0.08110327765235
H           71.26478247383010       -4.51849602792141        0.09562973739896
H           73.15537937193035       -2.60259865276843        0.06026446493018
C           28.97863351746819        0.00085487784513        0.00421970492077
C           27.75005445513820       -0.00007873194139        0.00272029536727
C           26.40575682729280       -0.00282723162896        0.00006250879797
C           25.18159962581408       -0.00627143460858       -0.00323389807645
C           30.32281438241010        0.00148327346533        0.00409129985438
C           31.54715533829306        0.00053322484616        0.00361359462124
C           45.06927855663120       -0.02961682310826       -0.02259551409615
C           43.84052460500434       -0.02531166066847       -0.02086576906055
C           42.49656970162533       -0.02206752177964       -0.01833703622546
C           41.27211774457491       -0.01837089095125       -0.01514806047672
C           46.41325046251954       -0.03256276971838       -0.02452354320270
C           47.63768847903123       -0.03804452571623       -0.02480253502117
C           61.16023783189472       -0.04559944056293       -0.02216946117567
C           59.93204479325891       -0.04974419500881       -0.02388640780315
C           58.58714425607239       -0.05238157427850       -0.02425160260133
C           57.36314479749185       -0.05301637480465       -0.02480239807499
C           62.50525853455168       -0.03940435093787       -0.02206104275792
C           63.72912195341412       -0.03242172308270       -0.01949483347147
Zn          36.40970424765896       -0.00824335202314       -0.00566154863103
C           32.95145351186922       -0.00185605445001        0.00135757899944
C           33.60396170291723        0.92969332862338        0.83593731397444
C           32.94193065031849        1.87821717492556        1.68578343857384
C           33.91058881704370        2.58774346858872        2.32027507507775
C           35.17205377410013        2.07790019255660        1.86256952530670
N           34.94896622608722        1.07170465607881        0.96196683548079
C           36.41907299433728        2.53571445514784        2.27082720907682
C           37.66255710072870        2.07426356668794        1.85653214817818
C           38.92780226248824        2.58043202939812        2.30797963549581
C           39.89122894118228        1.86736715983176        1.66957534861754
N           37.87840352795072        1.06682895397365        0.95531895731011
C           39.22223443188713        0.92039124490131        0.82335525381337
C           39.86800990310314       -0.01479507078047       -0.01261956197535
C           39.21531991530649       -0.94741987034197       -0.84606549214402
C           39.87740379748888       -1.89679562953406       -1.69502785114131
C           38.90878619846262       -2.60616319690090       -2.32966294085257
C           37.64727557259422       -2.09540728207954       -1.87298960640355
N           37.87045677833750       -1.08882732657814       -0.97261094936991
C           36.40044393080470       -2.55231269357142       -2.28215316571712
C           35.15683897001205       -2.08989755082014       -1.86876043816822
C           33.89167585784770       -2.59514222776039       -2.32126723571410
C           32.92823923154211       -1.88190612212725       -1.68301251714088
C           33.59720669077132       -0.93586445045398       -0.83581477389346
N           34.94114368129768       -1.08281799045387       -0.96733127246638
H           31.87215934639053        1.98019028551080        1.77799799741496
H           33.79233408333562        3.38654084553666        3.03563162938443
H           36.42199893332936        3.34493657791627        2.99489510267820
H           39.05188349384521        3.37934437722251        3.02222136879674
H           40.96172863095845        1.96596367828303        1.75684414990325
H           40.94716667766796       -1.99935374671653       -1.78664962292667
H           39.02702586700688       -3.40538712565966       -3.04454351318909
H           36.39741002105578       -3.36151954729138       -3.00623401673615
H           33.76757345518263       -3.39360908774781       -3.03600067506946
H           31.85775042248196       -1.97998325988323       -1.77094025983073
Zn          52.50000694531366       -0.04601762622466       -0.02522081508792
C           49.04185566552015       -0.04014674769577       -0.02589185456141
C           49.69257617794689        0.91537845929666        0.78275979588349
C           49.02852170492913        1.88749718460102        1.60405435604573
C           49.99563679317507        2.61648312512041        2.21837839388884
C           51.25825038911781        2.09521141074120        1.77676758780967
N           51.03716433888181        1.06243803737382        0.90604769961928
C           52.50408576079202        2.56769848922821        2.17094605256096
C           53.74862110998669        2.09624442776194        1.77065652613886
C           55.01285095050370        2.61917400642561        2.20570607604805
C           55.97769955421336        1.88770406877066        1.59083185768617
N           53.96625457864872        1.06118337325388        0.90224345014668
C           55.31067209678138        0.91261153605624        0.77543012522334
C           55.95792788942354       -0.05131081600994       -0.02514028811697
C           55.30781486523522       -1.01350954839119       -0.82538158696214
C           55.97186919892193       -1.99106656483327       -1.64025228508203
C           55.00478465879195       -2.71926625280387       -2.25550448574501
C           53.74212826680477       -2.19249666263929       -1.82045233604952
N           53.96293856473126       -1.15810291727833       -0.95205772316803
C           52.49613159002639       -2.65984587014885       -2.22108266934149
C           51.25169939218618       -2.18317158547754       -1.82743494400050
C           49.98748883437072       -2.70023751704152       -2.26948111210911
C           49.02257229808312       -1.96785280378746       -1.65572074984153
C           49.68955704807176       -0.99790590224637       -0.83425996749158
N           51.03371750161033       -1.14944733980784       -0.95706113232642
H           47.95854958001851        1.99076602071353        1.69236028853213
H           49.87573112085791        3.43567717565985        2.91000081803965
H           52.50547068462108        3.39870357165486        2.86990098443851
H           55.13526785039254        3.44075104172568        2.89406052318233
H           57.04799174241934        1.99081297668557        1.67536794780680
H           57.04185884292104       -2.09751384557865       -1.72455775766279
H           55.12470786159347       -3.54112826409074       -2.94395689099467
H           52.49498484415744       -3.49078240909047       -2.92012394768993
H           49.86510450185252       -3.51916330502279       -2.96099252036789
H           47.95228183896548       -2.06748504874396       -1.74439671627209
