474
 energy: -937.191982214938 gnorm: 0.000679623061 xtb: 6.5.1 (b24c23e)
C           95.29913683515240        0.04126954467264        0.03793983287589
C           95.90072369247272       -1.17622970087676       -0.25177170166243
C           95.24171738652059       -2.41222924449442       -0.50576021443630
C           96.19741825235026       -3.35555886707491       -0.75574078171119
C           97.47181079226029       -2.72371170123674       -0.67195382374999
N           97.24204031708838       -1.41513394486118       -0.35669378792586
C           98.73145567644377       -3.30746627902257       -0.84572606992634
C           98.75266851799471       -4.74465426794903       -1.21021195064223
C           98.15607162633218       -5.17870361156877       -2.39690550547007
C           98.17435199560585       -6.51933953464595       -2.74439977182138
C           98.78965607201214       -7.41948098785784       -1.88965103863180
S           98.82155984132022       -9.11674822150506       -2.32731109115986
O           98.69531506567156       -9.28145656318264       -3.74563784204674
O           97.41737496369026       -9.56172040215690       -1.64225832878803
O           99.88758153435953       -9.79564847695894       -1.65184311220908
C           99.39079618131676       -7.01988628596986       -0.70713596874472
C           99.37037331625952       -5.67616137312915       -0.37173833832984
C           99.95285999837452       -2.64246640131307       -0.70570459778666
C          101.24566554342364       -3.25907966151555       -0.94754839371526
C          102.17223054106550       -2.30770481389363       -0.71245504026796
N          100.11482569263298       -1.33905004860431       -0.35302877728643
C          101.44462186282747       -1.10952120723037       -0.33941924164174
C          102.08719070192086        0.10098508649046       -0.01842890787695
C          101.46150835613149        1.31708867664728        0.30798986434816
C          102.11488638533312        2.52925586063118        0.65744552007366
C          101.15485127135696        3.47116333174247        0.90135921474626
C           99.88368134988310        2.86436914963853        0.69875549732563
N          100.12081008379829        1.56207312113450        0.34910411627910
C           98.62446884933250        3.45405686515165        0.85302034447307
C           98.60168998830932        4.88858052832496        1.22562251860650
C           99.17545940206772        5.84659324046384        0.38563115291569
C           99.15715403034532        7.18760128016866        0.73191520504839
C           98.56465823721153        7.55754593286236        1.92835609377729
S           98.53657631407897        9.25321305310845        2.37213902108969
O           98.67419433742319       10.08708139900580        1.21443685297065
O           99.93532232360333        9.30191727516809        3.19749265592480
O           97.46614624776079        9.52224629355136        3.28610289129203
C           97.98433126225602        6.63195117376221        2.78045363674163
C           98.00440407293462        5.29431602697489        2.42208748749935
C           97.40252054903981        2.79342897673256        0.68646548311751
C           96.10160107263914        3.43659023162812        0.79510497331725
C           95.18207993864878        2.47797097274578        0.56720120845025
C           95.91971603966988        1.25325733676087        0.30927789890758
N           97.25393811182501        1.48340561207735        0.38032684697819
H           94.21395600573447        0.03589806628212        0.05038182295523
H           94.17237154514943       -2.54934611149489       -0.48985425356295
H           96.04013989002908       -4.40015174737188       -0.97009549383805
H           97.97126597665410       -0.72363882291741       -0.21790719925485
H           97.69253034429093       -4.45666550151191       -3.05903759025659
H           97.72550599378981       -6.86452761405826       -3.66731826036960
H           97.23467813119368      -10.49062045327777       -1.82875834342606
H           99.86754433112094       -7.74986507511025       -0.06512326141023
H           99.82463065180812       -5.34426984680269        0.55448907716621
H          101.40120003111122       -4.27647435845140       -1.26771567752186
H          103.24534601565999       -2.38066579835460       -0.78664794114969
H          103.18408140284495        2.65262952430156        0.71850312127570
H          101.31019261740771        4.49334368557346        1.20558510573915
H           99.39342553631698        0.88026772554198        0.16005351926721
H           99.62138109152286        5.53847822431556       -0.55289769920091
H           99.58907048232341        7.93918813358008        0.08310672065855
H          100.11294873803837       10.20122951696699        3.49868044334935
H           97.52445016539902        6.95683650021711        3.70527084027608
H           97.56738924307739        4.55274219348711        3.08047972206811
H           95.93960761513357        4.48198804595448        1.00266818763321
H           94.10678194960599        2.56164238628678        0.55891323130230
C          182.81620575282085        0.08558477272481        0.02935024571754
C          182.22094801613022        1.27935279571902        0.41509063603869
C          182.88640993772898        2.46766299986292        0.82927684512879
C          181.93538831310002        3.40744365534412        1.10900562733424
C          180.65757892150506        2.82699173686622        0.86300629537235
N          180.88068623734762        1.54190183265485        0.45875314828513
C          179.40045952140440        3.42248913327743        1.01389043137464
C          179.38291249613548        4.84097996663598        1.44485771715968
C          179.99000818823234        5.82601386863641        0.66151541660238
C          179.97552532569009        7.15180518377785        1.06234051786547
C          179.35322014395203        7.47904463604737        2.25614771955613
S          179.32771415438964        9.15581192690737        2.76703668950884
O          179.46500461338201       10.03626136827030        1.64415005661395
O          180.72870611647701        9.17185421763198        3.58974417117796
O          178.25796267104818        9.38767542631770        3.69182585443926
C          178.74043628510233        6.52581433866511        3.05320379275805
C          178.75717135837797        5.20385522419793        2.64049479020815
C          178.17664487869499        2.78487525973735        0.79111819736453
C          176.88751991273702        3.44795478297894        0.88308976705380
C          175.95649716448341        2.51223744815214        0.60631817109047
N          178.00843942678861        1.48083846742284        0.44390910144693
C          176.67775369930570        1.28253270481097        0.33840935468881
C          176.02885482991812        0.06981932396687        0.03869822949494
C          176.64886578607917       -1.15416721869187       -0.26908767415220
C          175.99084263582600       -2.38192158555766       -0.54799587459037
C          176.94626936786744       -3.31914963235964       -0.82613081363583
C          178.21875217762530       -2.68882317194643       -0.73388618578475
N          177.98763319141827       -1.38570321741579       -0.38360421866895
C          179.47462585985110       -3.27209636770841       -0.93378717169355
C          179.49061915730013       -4.69574757707973       -1.34577159167804
C          178.88048522035834       -5.09132781003148       -2.53913304810477
C          178.89583664351966       -6.41971526255619       -2.93094387655938
C          179.52218954286096       -7.34679705926851       -2.11389850337527
S          179.54916095743206       -9.02912121684059       -2.60579711472578
O          179.36264404142764       -9.15090016187511       -4.02180220053902
O          178.18020939937625       -9.50879978602240       -1.87397656220799
O          180.64865707954235       -9.71924974559126       -1.99870677113203
C          180.13746756429239       -6.98559628349331       -0.92622861220077
C          180.11981745399436       -5.65383681701664       -0.54638174010403
C          180.69933944662068       -2.61426497074226       -0.77619834596549
C          181.99566365354929       -3.21915671218687       -1.04357390064611
C          182.91976904617030       -2.27675188507898       -0.77087942421481
C          182.18923484064533       -1.09409159249398       -0.34883876819809
N          180.85457350864840       -1.33086121149310       -0.37515294619272
H          183.90147329491361        0.08330571809641        0.02622996991365
H          183.95666642938352        2.57394330446535        0.90559647453500
H          182.09835269783790        4.41243651881600        1.46298324956883
H          180.14775631454211        0.87985734714835        0.22697088336334
H          180.45862028420152        5.55183407437299       -0.27647992917610
H          180.43281151585077        7.92446680989574        0.45711359325155
H          180.93068306681783       10.06765000175166        3.88603064904853
H          178.25803307417482        6.81763359698382        3.97757492126657
H          178.29382840367691        4.44086379020806        3.25498533297520
H          176.73768254101725        4.49057201727263        1.11183111948595
H          174.88421835400692        2.61937034293204        0.57253002103339
H          174.92197449494819       -2.52107521808913       -0.53083388028877
H          176.78733119248221       -4.35814475742705       -1.06440379357730
H          178.71751137203620       -0.69765449426248       -0.23013730602604
H          178.40868112446930       -4.34844346679297       -3.17170168319066
H          178.43630392932036       -6.73482770446704       -3.85932883086278
H          178.00505700160434      -10.43698962726049       -2.07087470769506
H          180.62254825003828       -7.73575468456136       -0.31444281980686
H          180.58444673299743       -5.35231817486706        0.38505784416930
H          182.15166201485792       -4.22316443680787       -1.40385557943809
H          183.99372628403773       -2.34197838307856       -0.84642961905338
C          104.71826601393126        0.11935540230986       -0.01429173882963
C          103.49738273949700        0.10980941117857       -0.02005695282542
C          106.07058013525905        0.12577293730513       -0.00733320533590
C          107.29154563887866        0.13113229184398        0.00477631985276
C          118.18749799402561        0.14207103352634        0.08320854005642
C          116.96494267897205        0.14750939930345        0.07762489212416
C          119.53606115584267        0.14078232833501        0.08467349835538
C          120.75868319206889        0.13689147407388        0.08851618527744
C          131.65271647490573        0.11080308529289        0.07818599193952
C          130.43000090119904        0.11397652996957        0.07470862909218
C          133.00106480532273        0.11099347590233        0.07801714143581
C          134.22381015571659        0.10841140737862        0.08008759366146
C          145.11785335073867        0.10922274843981        0.07490795630489
C          143.89514125326309        0.10864066814576        0.06934892215619
C          146.46619301181215        0.11184131031294        0.07522685071168
C          147.68889540226874        0.11277777023663        0.07942482725998
C          158.58258916508112        0.12979423966396        0.09851357311397
C          157.35996394251200        0.13022480738511        0.09179191940471
C          159.93109055245472        0.13298207852153        0.10060302015518
C          161.15370655240767        0.13277751043619        0.10675317598359
C          172.04610057262454        0.07077715964929        0.06364101586886
C          170.82504522804260        0.08068842217799        0.07149173846857
C          173.39809735362834        0.06579620459050        0.05549193921191
C          174.61908228756624        0.06809576485590        0.04636825279605
C          108.70076453233773        0.13741709716841        0.01674203941898
C          109.33085417788929        0.83861408431574       -1.02709744362819
C          108.68668671676434        1.50994200405255       -2.09913899044763
C          109.65444269362870        2.06475272775871       -2.89043394673573
C          110.91895558121303        1.75564289528023       -2.31794861967241
N          110.67301040659630        1.00670651329683       -1.19934924717960
C          112.18170516924765        2.11686422307210       -2.80334059828043
C          112.20159091697617        2.95443135578353       -4.02792785898679
C          112.80029136673832        2.47648721743387       -5.19635613652822
C          112.82113931780249        3.25194030506070       -6.34379586490304
C          112.24009703762825        4.50912173407162       -6.30743865906385
S          112.27455209883344        5.50141288963667       -7.75243263147658
O          112.13895068617165        6.88901006587868       -7.42062996747489
O          110.87881722253040        4.99930406141637       -8.41417682046329
O          113.34753241854266        5.10578292471875       -8.61619949264389
C          111.64448363512750        5.01298278334946       -5.16264997521969
C          111.62510821633948        4.22698832153743       -4.02217279248543
C          113.40547875230575        1.75748942172423       -2.23631637851993
C          114.69314341274841        2.20445605607277       -2.73791040917817
C          115.62723897875760        1.65436408271391       -1.93528423523226
N          113.57823802539133        0.96955365376554       -1.13970898093274
C          114.90870826538929        0.88147185413092       -0.94099060487751
C          115.56018819372511        0.14922158630629        0.07192266239903
C          114.92871396313269       -0.58922000644134        1.09106581098948
C          115.57306545588678       -1.34821115477117        2.10232492572340
C          114.60496614808844       -1.89785798092810        2.89704075248617
C          113.34006465569621       -1.48249452547225        2.39735423491682
N          113.58677092966953       -0.70128937591833        1.30059117126467
C          112.07741596147940       -1.81822884278632        2.89973508776032
C          112.05759721378863       -2.65795123073509        4.12280046612163
C          111.47779921940521       -3.92877242030511        4.09534364838211
C          111.46052608406934       -4.71841516970678        5.23319577676408
C          112.02330882373566       -4.22026363670427        6.39704194991117
S          112.01416697507224       -5.21770913017493        7.83887648509653
O          111.90277042988534       -6.60501517487509        7.49739460747063
O          110.59194231810366       -4.72969117195838        8.45257403295501
O          113.05250260673445       -4.81631189734932        8.74172800326085
C          112.60630636493593       -2.96491181221499        6.45524372303700
C          112.62271566109646       -2.18582289146999        5.31009232137789
C          110.85297323077950       -1.43063665689929        2.35135439614815
C          109.56399957188441       -1.75735186922987        2.93622020359342
C          108.62995848660212       -1.21395076603534        2.12930148685240
C          109.34920728499344       -0.54835924725859        1.06050624821365
N          110.68162263186711       -0.68756767709590        1.22526244576331
H          107.61909029973260        1.55200152929283       -2.24228174184302
H          109.50750948044514        2.62991569607746       -3.79623845754578
H          111.39167558310757        0.62574463561175       -0.59301129384197
H          113.23994379470948        1.48603362883171       -5.20592909996776
H          113.28327870182365        2.89192720427404       -7.25437833423498
H          110.72183722637418        5.45587038124088       -9.24963819650075
H          111.21122524320289        6.00527730944615       -5.16593424705566
H          111.17612510099515        4.60803861060338       -3.11232864827867
H          114.84030701455225        2.86128191174477       -3.57975733897382
H          116.69976654213802        1.75292045072632       -1.98447646759205
H          116.64101650874841       -1.45866574710898        2.19875223546395
H          114.75202805700272       -2.54247988725819        3.74808549317944
H          112.86822981799661       -0.27460463306524        0.72536554135690
H          111.05364205278883       -4.30381584952246        3.17133533652493
H          111.02402367479260       -5.70918707112156        5.22037121914416
H          110.41544156623060       -5.18100153089202        9.28701224822784
H          113.04133616126741       -2.60891839332948        7.38064628955047
H          113.06369273723055       -1.19617428385276        5.33743598901224
H          109.41606927873583       -2.31413757251144        3.84721301719030
H          107.55675610033182       -1.23876112816316        2.22933107986453
C          122.16323031611938        0.13308318008593        0.08491454778288
C          122.78822146561973        0.80650188306668       -0.98261437902655
C          122.13763457475780        1.45657551945085       -2.06304012914901
C          123.10110308848914        1.99131944943409       -2.87392052158876
C          124.36862616060448        1.69075630255698       -2.30470953528587
N          124.12884037581925        0.96547801813513       -1.16872302494027
C          125.62873174826711        2.04177745371960       -2.80442447659358
C          125.64237808623560        2.85678735524880       -4.04423494135623
C          126.23470350857687        2.35665167452208       -5.20650045008810
C          126.25206700816572        3.11139660405734       -6.36780375032601
C          125.67414678450601        4.37029195639119       -6.35135018459019
S          125.70616803448914        5.33784810174087       -7.81360644378992
O          125.61431360958539        6.73538950822780       -7.50722001899061
O          124.28052154918117        4.87441905463314       -8.43731275894051
O          126.75307672441633        4.89413762095074       -8.68475382076876
C          125.08410342652822        4.89554753789667       -5.21322704409072
C          125.06794612698857        4.13022520638775       -4.05875478858980
C          126.85590645992019        1.69310398947686       -2.23824152928492
C          128.14006802908986        2.13464641278575       -2.75312874822264
C          129.07938220575073        1.59793541621088       -1.94744046944993
N          127.03581589311771        0.92126106460808       -1.13120794859057
C          128.36754781835384        0.83741327317113       -0.93910939273800
C          129.02562053057110        0.11545279161126        0.07700363502496
C          128.40030205435193       -0.61536813928706        1.10595586598410
C          129.05050195661136       -1.37228729433752        2.11455843603550
C          128.08701079630143       -1.91463666564419        2.92036025785394
C          126.81995792964901       -1.49510176321612        2.43096026832849
N          127.05987473202082       -0.72053581623582        1.32809029425919
C          125.55989659167199       -1.81753408831216        2.94999592779697
C          125.54739546088823       -2.65311796004727        4.17608634450227
C          124.95538885744881       -3.91852679095774        4.15800940671555
C          124.94517620788163       -4.70618750911676        5.29725887620957
C          125.52735251718845       -4.21161214242111        6.45311377239778
S          125.52787414650413       -5.20787993191708        7.89619008960227
O          125.41478703282465       -6.59699667716237        7.56052623669888
O          124.10582002737561       -4.72864281667918        8.51538461656706
O          126.57402767383647       -4.80133063772280        8.78657513444781
C          126.12215910351955       -2.96151497742920        6.50197000864138
C          126.13125761239121       -2.18418346150232        5.35539860024456
C          124.33292961669517       -1.42121570513369        2.41597502556897
C          123.04914957591983       -1.72614569747538        3.02263070436177
C          122.10983888169203       -1.18015879797645        2.22318696888596
C          122.82136280148981       -0.53717467034236        1.13581080216930
N          124.15284828719777       -0.68832041047979        1.28275321551819
H          121.06908747341804        1.49967358881107       -2.19854485035983
H          122.94870263999084        2.53766928768674       -3.79028451460266
H          124.85094567888657        0.59562155944877       -0.55958454625811
H          126.67253524802346        1.36536168656605       -5.20011388274136
H          126.70934032791102        2.73407395659227       -7.27379824676360
H          124.02791167977270        5.45819914981132       -9.16306856110065
H          124.65312558130469        5.88868413630871       -5.23221887993715
H          124.62371314138124        4.52840393685902       -3.15393448235093
H          128.28159459701237        2.77955635226909       -3.60508428383591
H          130.15146705999655        1.69753765783585       -2.00370583487683
H          130.11876507941489       -1.48711334901987        2.20188621231509
H          128.23919559154547       -2.55630260905951        3.77271751084897
H          126.33800782073435       -0.29326850521183        0.75745875481436
H          124.51613211596617       -4.29086840314836        3.23995675914577
H          124.49959102604022       -5.69300288734024        5.29142114906735
H          123.85371974332931       -5.29562603174425        9.25427683781171
H          126.57180107206409       -2.60802728601556        7.42131833222212
H          126.58125351306147       -1.19844057979900        5.37576428876134
H          122.90812243786243       -2.27071151850838        3.94207326917610
H          121.03796213128540       -1.19086508278137        2.33913041332040
C          135.62816530465199        0.10838941139852        0.07686747785643
C          136.25199499847321        0.78400764525739       -0.99004139140325
C          135.60026751520454        1.43428754313831       -2.06965940007633
C          136.56274754227238        1.97381065339072       -2.87855407001025
C          137.83074420347828        1.67558716462575       -2.30916193532000
N          137.59223576319860        0.94708662852991       -1.17492054332463
C          139.09007022516826        2.03091950605568       -2.80762453529099
C          139.10201025848571        2.85088037669226       -4.04418493727785
C          139.69491438646259        2.35688599222720       -5.20875725556099
C          139.71153870266741        3.11720927184710       -6.36643099967653
C          139.13221260588975        4.37536522663543       -6.34400320035535
S          139.16328101758111        5.34980856188923       -7.80170927761867
O          139.06544501757668        6.74556013940421       -7.48911945719464
O          137.74068234988829        4.88351008836119       -8.43008979473305
O          140.21357494198926        4.91421426496213       -8.67286707700131
C          138.54121304808154        4.89442031811290       -5.20355456729062
C          138.52585111926479        4.12358117713852       -4.05274750989189
C          140.31806451363292        1.68269647394775       -2.24283696897069
C          141.60141676463735        2.12654705158374       -2.75769234514285
C          142.54182848971033        1.58914770770082       -1.95372441232055
N          140.49947997528261        0.90887808961624       -1.13746302965420
C          141.83143998447434        0.82675229487552       -0.94585485056254
C          142.49077017694407        0.10579293040797        0.07012839195409
C          141.86666080647296       -0.62489119378333        1.09997000708033
C          142.51823926412925       -1.37867140543207        2.10996847059260
C          141.55576133248115       -1.92027854260033        2.91752721165183
C          140.28800346309228       -1.50379460513283        2.42747654517413
N          140.52641930810503       -0.73169902605552        1.32259929563691
C          139.02855257065949       -1.82696275226878        2.94782581676688
C          139.01826223839146       -2.65795591678958        4.17707655415553
C          138.42936107321165       -3.92486194619120        4.16423256159183
C          138.42209273501155       -4.70830713415193        5.30642340644136
C          139.00402821899920       -4.20801560557218        6.45993069020871
S          139.00992352173466       -5.19954453237927        7.90627818431230
O          138.90194886047590       -6.59022880840801        7.57536678766213
O          137.58690244973832       -4.72401783325144        8.52590589657230
O          140.05587608878488       -4.78617810965110        8.79377315777666
C          139.59545910806057       -2.95612862844362        6.50370520336934
C          139.60160919589569       -2.18304038972818        5.35425851141722
C          137.80082936813182       -1.43531558968551        2.41240976722236
C          136.51753991078428       -1.74225562902888        3.01908386071768
C          135.57716579015280       -1.20138216241797        2.21741075021453
C          136.28759128497938       -0.55881109080894        1.12904500451174
N          137.61928586523180       -0.70571333608713        1.27713189069906
H          134.53169468361588        1.47451943192701       -2.20580834215202
H          136.40948016036117        2.52188161853143       -3.79374908696751
H          138.31489090989876        0.57816502621336       -0.56586901714173
H          140.13388284025291        1.36608425516331       -5.20702692800258
H          140.16943273617451        2.74478772744625       -7.27413531508622
H          137.48628713269787        5.46998987254422       -9.15303454234057
H          138.10900200902316        5.88710051749891       -5.21790053471824
H          138.08090962646986        4.51682914986155       -3.14611881244094
H          141.74182664757240        2.77306348756010       -3.60860199343972
H          143.61377100040326        1.68989161730289       -2.01060888401342
H          143.58668806786486       -1.49178169725765        2.19719649919883
H          141.70909445080520       -2.55964586608761        3.77140206685881
H          139.80385558162931       -0.30629220360973        0.75146351270287
H          137.99046401020613       -4.30180503791834        3.24789182290440
H          137.97908590847663       -5.69629756930000        5.30456835537577
H          137.33770576090362       -5.29048680336335        9.26621505517973
H          140.04493547734089       -2.59808698417456        7.42136696562041
H          140.04911306104924       -1.19608786866509        5.37059473549385
H          136.37746014009443       -2.28476297376903        3.93989181017679
H          134.50523742976023       -1.21506435103106        2.33262163348415
C          149.09325912754844        0.11600065922461        0.07970499865924
C          149.71834471174833        0.79146654578765       -0.98653615076515
C          149.06795206091613        1.43831978509562       -2.06902906224401
C          150.03134763837204        1.97705756185099       -2.87734216462323
C          151.29860011166323        1.68209305671449       -2.30457700126753
N          151.05869420486931        0.95617657259971       -1.16889921462907
C          152.55853413833808        2.03811905258531       -2.80082048181227
C          152.57274175984662        2.85315078827515       -4.04060356256268
C          153.17102561820451        2.35541311459546       -5.20085540934228
C          153.19012096443399        3.11061678584077       -6.36181363516514
C          152.60778565599875        4.36750933480312       -6.34708767347432
S          152.64242420084318        5.33560167751907       -7.80895734807294
O          152.53819981136900        6.73241481552083       -7.50318966100267
O          151.22447906938183        4.86194814441260       -8.44232579490909
O          153.69850213720846        4.89966306146196       -8.67289538963420
C          152.01139007549267        4.89019328015825       -5.21111614727530
C          151.99365128636521        4.12443838256751       -4.05692285233201
C          153.78566899577373        1.69453419299666       -2.23110693386500
C          155.06939810591345        2.14127727622260       -2.74251105958010
C          156.00871251265050        1.60825883476166       -1.93435442269480
N          153.96561168945848        0.92367686512566       -1.12353027442141
C          155.29728836424678        0.84507884365284       -0.92781631426339
C          155.95545348631344        0.12567387143805        0.08991132821676
C          155.33034863180220       -0.60759869051982        1.11718165547369
C          155.98092696956144       -1.36207986915102        2.12728086686934
C          155.01752318342528       -1.90784708677288        2.93090438154603
C          153.75015133194913       -1.49272806612932        2.43867530955649
N          153.98973429342391       -0.71755464457952        1.33629039833841
C          152.48994330460565       -1.81951020575429        2.95502476375915
C          152.47808172759198       -2.65526817270728        4.18097453617234
C          151.89050431602820       -3.92271674498976        4.16169237496105
C          151.88264502201699       -4.71135046650192        5.30030571159693
C          152.46267689155175       -4.21572184517033        6.45677290741429
S          152.46831294704421       -5.21423006335025        7.89829395884455
O          152.35855217290077       -6.60303981029002        7.56018731164528
O          151.04638897361087       -4.73992043011266        8.52123506810899
O          153.51507727668761       -4.80661333009139        8.78751628351514
C          153.05250858961136       -2.96330994364733        6.50704142238600
C          153.05919491670622       -2.18498432698591        5.36113221868760
C          151.26297939470726       -1.42781557779508        2.41796207412900
C          149.97881653732659       -1.73698597341643        3.02168462516732
C          149.03950292945254       -1.19511063721853        2.21946260734994
C          149.75138000699232       -0.55045629049065        1.13322989933766
N          151.08291346209245       -0.69637647914098        1.28364045247210
H          147.99960644240159        1.47677205861689       -2.20750039196864
H          149.87913200038690        2.52248580545611       -3.79428584318737
H          151.78071049894248        0.58981113038930       -0.55755362706140
H          153.61238662480505        1.36570210342724       -5.19308994067057
H          153.65224303827708        2.73529357283937       -7.26617747450799
H          150.96926975458896        5.44765864313988       -9.16559369059083
H          151.57693645872428        5.88179594296739       -5.23141323960234
H          151.54462033909545        4.52073045522506       -3.15364467492460
H          155.21063142046788        2.78669569839730       -3.59412008673472
H          157.08054078892948        1.71193443781449       -1.98789015154265
H          157.04938448856831       -1.47311372069032        2.21704121639920
H          155.17013019705325       -2.54894054694997        3.78360169844472
H          153.26765328614485       -0.29287159961262        0.76399469570870
H          151.45316461636105       -4.29603798119938        3.24311772922254
H          151.44081000405180       -5.69984667576246        5.29339327706320
H          150.79993083794034       -5.30562483199479        9.26299851135184
H          153.50050780840391       -2.60892996715187        7.42684643308508
H          153.50552907426990       -1.19758927689974        5.38252143739777
H          149.83756834412762       -2.28125933975684        3.94127354764955
H          147.96739781140715       -1.20955103052370        2.33287602199963
C          162.55836908139284        0.13242636821416        0.10546743140877
C          163.18323395853187        0.82296745986021       -0.95074882170847
C          162.53266926411413        1.48871502018326       -2.02202770902920
C          163.49562214042749        2.04327311687079       -2.81960817139327
C          164.76331797175257        1.73973910340022       -2.25134413446681
N          164.52349643919533        0.99204858331980       -1.12978370177413
C          166.02270194623057        2.10860498261576       -2.73809177621449
C          166.03801245739206        2.94835645470700       -3.96096591790944
C          166.64445243397475        2.47620845164988       -5.12777251218969
C          166.66171573622540        3.25198997218961       -6.27506601761440
C          166.06953670618122        4.50385459629111       -6.24014371396439
S          166.09853578824396        5.49674527126590       -7.68537655750846
O          165.99464223110832        6.88808370812720       -7.35564714289958
O          164.67827729329650        5.03251811394589       -8.32094906839390
O          167.15114896383645        5.07630220881260       -8.56116422042950
C          165.46626044334027        5.00210714285771       -5.09681597245848
C          165.45034415723754        4.21584628974736       -3.95647065774290
C          167.24976857187241        1.75170143406956       -2.17441942865877
C          168.53413308179520        2.21360118050404       -2.67169203859901
C          169.47304001499100        1.65296954887670       -1.88238656093500
N          167.42798285294472        0.94728793661819       -1.09253409909707
C          168.76118948064649        0.85728746222810       -0.90131217457383
C          169.41625818009553        0.09179216170477        0.08110320412498
C          168.79206372641687       -0.67166460855790        1.08421585272761
C          169.44155421028029       -1.46431033857707        2.06624197604768
C          168.47887675198493       -2.01354205147455        2.86768354538928
C          167.21258992125951       -1.56408736767441        2.40224547902477
N          167.45177175937238       -0.76688922724593        1.31621732347146
C          165.95372248600663       -1.87887814907763        2.92906496938046
C          165.94375365388044       -2.73077640313300        4.14373257859588
C          165.33206482386561       -3.98661089971940        4.11844703879757
C          165.32641961245508       -4.78876511948064        5.24764244086954
C          165.93325541797401       -4.31834621167260        6.40082898703156
S          165.94199957014007       -5.33358522983404        7.83043176668806
O          165.78460793028648       -6.71435849273186        7.47880259355545
O          164.54977231585869       -4.82315480159630        8.49098007492044
O          167.01928042738464       -4.96789951308065        8.70160476856960
C          166.54762375072681       -3.07798045830322        6.45692090819014
C          166.55162473517032       -2.28608059958891        5.32046357297514
C          164.72723037491076       -1.46044232810039        2.41109245670734
C          163.44405865915328       -1.76205415104883        3.02093766125458
C          162.50504060239300       -1.20162112788408        2.23124232945711
C          163.21633836766102       -0.55125904882320        1.14789873015055
N          164.54725035868077       -0.71208611323956        1.28805301773674
H          161.46434272673903        1.52829258768905       -2.16040759865216
H          163.34330633680281        2.60508939061613       -3.72658939289165
H          165.24570821318360        0.61479226410000       -0.52536127829557
H          167.09293820264841        1.48970384209763       -5.13623653721150
H          167.12940398936831        2.89611015094156       -7.18440704073576
H          164.42442818853723        5.62448090222240       -9.03957999917552
H          165.02464730209067        5.99073353522589       -5.10094478227932
H          164.99577254513116        4.59292526209827       -3.04775332279380
H          168.67556889263346        2.88672464199603       -3.50153014990956
H          170.54496651027847        1.75652677737220       -1.93311751244542
H          170.50900652955363       -1.59510651539925        2.14003092246807
H          168.63032890546157       -2.67864005831122        3.70202635481102
H          166.73034461768640       -0.31407394867187        0.76509141640540
H          164.87413150960563       -4.34062791164643        3.20228841757354
H          164.86575407981528       -5.76856498118456        5.23580980288301
H          164.32425400627278       -5.36340919650896        9.25797802171979
H          167.01631143864998       -2.74344885957207        7.37383384012384
H          167.01699444088578       -1.30763509118639        5.34670544774836
H          163.30335249321061       -2.31518964149118        3.93530961284337
H          161.43362395530505       -1.20619565390772        2.35181843889186
