76
 energy: -131.886258213833 gnorm: 0.000807749508 xtb: 6.5.1 (b24c23e)
Zn           7.77411104919278       -0.03624601903450       -0.01365317881180
C            4.34578195141032       -0.03306358464701       -0.05145720002379
C            4.97998421356559       -0.91268517212108       -0.92211729698823
C            4.31723618447184       -1.81087340747895       -1.82980270232068
C            5.28454348378014       -2.49459877485628       -2.49112025156769
C            6.54952761378128       -2.02216563707919       -1.99525401514237
N            6.32969785659993       -1.06528658160770       -1.04851769671886
C            7.79804075351936       -2.47141864027584       -2.41162954968116
C            9.03739629677572       -2.03612709998436       -1.95772200980451
C           10.30792072042579       -2.52571737604935       -2.41550822371516
C           11.26501805811731       -1.84364862315673       -1.73593212678153
N            9.24520850851665       -1.07098221165772       -1.01001374416423
C           10.58834592344305       -0.93210850519982       -0.85636443644425
C           11.22448429527724       -0.02763351448819        0.01707995019510
C           10.56844627475439        0.87114152272045        0.88165801490341
C           11.22575084812633        1.78368771532455        1.77477056592383
C           10.25396993082176        2.45766494170272        2.44137637910517
C            8.99368450370996        1.96396132051977        1.96028501091282
N            9.22215340139204        1.00277733103108        1.01322333047530
C            7.74511768501861        2.39602740420772        2.39158112408519
C            6.50545802791438        1.94902909258631        1.94724647123184
C            5.22988000024712        2.42403490463584        2.41325028286239
C            4.27723616692691        1.74385786879516        1.72753905031521
C            4.95977720113145        0.84499839363815        0.83504801361518
N            6.30613547261233        0.99377454734342        0.99473993851919
H            3.26026722589700       -0.03224818677251       -0.06495459824246
H            3.24700691363271       -1.89643904848271       -1.93717960515483
H            5.16646694745462       -3.25308857534111       -3.24942262872433
H            7.80613490746911       -3.24471121237242       -3.17375230128578
H           10.43898532567628       -3.29280136544293       -3.16274912153498
H           12.33631537922295       -1.94055417722317       -1.81574458616131
H           12.29505215897962        1.88606831782332        1.87233414983785
H           10.36846672853482        3.22244002725221        3.19370600144297
H            7.73750912040380        3.16711653127461        3.15595442833068
H            5.09550766386451        3.18235681886678        3.16897917878473
H            3.20492539921177        1.83272075132323        1.80837889128231
Zn          21.28556921083570        0.03672314315401        0.01551569989463
C           24.71391222249934        0.05914264185718       -0.01607239157944
C           24.07993051717362        1.29582122198002       -0.06808011746271
C           24.74290003374994        2.57085491119262       -0.13609714087718
C           23.77575933668894        3.52181965311170       -0.16483575304995
C           22.51067173845119        2.83893863523257       -0.11510819419263
N           22.73027071920932        1.49399464021410       -0.05877238684036
C           21.26224912188182        3.45165214103956       -0.12067893003984
C           20.02278409267876        2.82450367096712       -0.07734248106778
C           18.75239304820473        3.49490527296693       -0.08731750962623
C           17.79511046571594        2.53331695960048       -0.04252573793025
N           19.81471331490890        1.47286475347259       -0.02475602535543
C           18.47154439590317        1.26700841670503       -0.00486191416831
C           17.83518607547604        0.01034762702295        0.03301313454471
C           18.49095632569044       -1.23637974576441        0.06800350367105
C           17.83341634729245       -2.51230790179040        0.11430311040913
C           18.80503355194683       -3.45962903270083        0.15335737162680
C           20.06544632025852       -2.77090840864096        0.12976155586490
N           19.83720972131352       -1.42253920895119        0.07697919404682
C           21.31391324026166       -3.38096175094353        0.15752670585396
C           22.55370062508637       -2.75155796292972        0.12946340168264
C           23.82913986142371       -3.41676124618659        0.15420819238244
C           24.78196633471043       -2.45241122117096        0.10404826233119
C           24.09967623358875       -1.18678237475117        0.04912313613996
N           22.75327110115717       -1.40400723724045        0.06775200395471
H           25.79942607525365        0.06737195587998       -0.02756300113476
H           25.81314695647799        2.70618150339649       -0.15846799961249
H           23.89400196393472        4.59313611690443       -0.21551804503036
H           21.25433669874615        4.53648638084709       -0.16482405994479
H           18.62149087266530        4.56514252900583       -0.12497321775640
H           16.72384863650699        2.65897301520917       -0.03641078230625
H           16.76407287945864       -2.65344129697784        0.11742300560435
H           18.69037256360474       -4.53161296677207        0.19456732156076
H           21.32134796947098       -4.46571082770483        0.20407982552337
H           23.96331508594345       -4.48626796761748        0.20302863700244
H           25.85425285281186       -2.57275020722766        0.10351768940200
C           13.85389482503825       -0.01126000609479        0.03072488907569
C           12.63253412790847       -0.02126893986017        0.02538397486358
C           15.20553421844593       -0.00461260421757        0.03421459223305
C           16.42700912574723        0.00031894200985        0.03458397175457
