266
 energy: -546.294934378579 gnorm: 0.000627154466 xtb: 6.5.1 (b24c23e)
Cu          50.99344651645566        0.05126810570161        0.01100453739321
C           47.58849354909508        0.11390767972800        0.05711002060780
C           48.22320304452985       -0.19796411025165        1.24983977464436
C           47.54782789885326       -0.52935632476401        2.47222775890744
C           48.50612832762904       -0.76709585779412        3.40118913453743
C           49.77690622958416       -0.57036835792987        2.75692312510706
N           49.57397414068576       -0.23491704387666        1.44949652738707
C           51.02235191107977       -0.71810467981096        3.37112860647327
C           51.03883636506555       -1.06190447325631        4.81448322486974
C           50.49550828384496       -0.18504014046669        5.75649583065842
C           50.51775991480795       -0.49986743550057        7.10533286062236
C           51.08225658454826       -1.70250074831094        7.49827889950622
S           51.12681908991533       -2.10128201634224        9.20493986530903
O           51.05327906365532       -0.91564528142994       10.00698205961067
O           49.69996262626306       -2.87128856779357        9.30493896621732
O           52.16624383601887       -3.04941101169423        9.47976137253998
C           51.62808060459551       -2.59302620345983        6.58804270173504
C           51.60524571962437       -2.26528363812410        5.24252454619548
C           52.25643580861576       -0.56845803469092        2.73447922442484
C           53.53334277969926       -0.65095971991164        3.38632174545169
C           54.47900784139885       -0.44216411119867        2.43609882432197
N           52.44366088249884       -0.29792578084193        1.40588247320900
C           53.78798904019577       -0.22492572708878        1.20026851743233
C           54.42156407376960        0.00593928451756       -0.03135495889401
C           53.76394866923035        0.24828443516516       -1.24796992082684
C           54.42978369768425        0.44004566028905       -2.50169236087738
C           53.46657595039983        0.66490779777068       -3.43046152863564
C           52.20441425465458        0.62080069782737       -2.74689812684019
N           52.41728743760270        0.35413453478106       -1.42144707161600
C           50.95937901179352        0.80349475357853       -3.35298294915762
C           50.94773849751051        1.13216289000869       -4.79976023745505
C           50.34151616468077        0.26837024813613       -5.71513741273660
C           50.33204235020266        0.57001300280167       -7.06711951951554
C           50.93192808666966        1.74480221214034       -7.49048881715431
S           50.91435226063506        2.13774932401740       -9.19926074154071
O           51.05961859469779        3.54938529769887       -9.40552136360094
O           52.31591144676398        1.43391616852483       -9.62349113207778
O           49.84172625762444        1.45474054971211       -9.85850328348144
C           51.53477805530641        2.62490109627465       -6.60640265673427
C           51.54194607757736        2.31102809421925       -5.25740949448699
C           49.72648925259767        0.70429946593313       -2.70444656434948
C           48.44682042413625        0.94695661274252       -3.31475694136055
C           47.50619797967649        0.75203376785553       -2.35827703872317
C           48.20176328922815        0.39946741511705       -1.15320879811110
N           49.54697869849100        0.38331209461527       -1.39002311835437
H           46.50376546127466        0.13519928470572        0.07204852282085
H           46.47667173776845       -0.57932463436887        2.58768378011567
H           48.37233620992241       -1.06028370439514        4.43001260980751
H           50.07021233142041        0.75648193600283        5.42909052600486
H           50.11129881339558        0.17813884228640        7.84524965404621
H           49.55053176379833       -3.18247669029994       10.20600272958129
H           52.06593157947103       -3.52211216578781        6.93074547753167
H           52.01920327511336       -2.95133923573928        4.51275293496910
H           53.68265569950474       -0.83070765658395        4.43862408297070
H           55.55078658350467       -0.42846624479450        2.55270858485877
H           55.49776131152819        0.39859939830977       -2.64404184472591
H           53.59469747473079        0.83267917778019       -4.48754051026462
H           49.88785076039155       -0.65120611223834       -5.36428211216028
H           49.86518068534141       -0.09228714379158       -7.78525677238674
H           52.59654480718988        1.74912791787981      -10.49123138894917
H           51.98305806275758        3.54085802149497       -6.97038321780775
H           51.99782702877506        2.99120145731433       -4.54739519078209
H           48.29587718588829        1.24069150121892       -4.34102129110344
H           46.43507880788249        0.84381364156986       -2.44450632177360
Cu          91.41876996832073        0.03977511028551       -0.01281732098476
C           94.82403516081621        0.12648137486104       -0.03360644678369
C           94.18811874398681        0.27559697076671       -1.25647110284510
C           94.86273118748622        0.42569267821913       -2.51430064711729
C           93.90381538368720        0.53841342791995       -3.46587206729471
C           92.63345123669707        0.46898191288176       -2.79545390782388
N           92.83686481139125        0.30273751137470       -1.45586372321438
C           91.38826816771495        0.53526603523467       -3.42368152919021
C           91.37227191218324        0.74737170037436       -4.89234118092414
C           91.89079109862237        1.92312661014882       -5.44018050695192
C           91.86891469784733        2.13020737015580       -6.80971428829386
C           91.33003556417921        1.14609037505911       -7.62233558911505
S           91.28663378190721        1.40728764903829       -9.35555676580610
O           91.33410737767167        2.80710522189710       -9.65911096376758
O           92.72653988578637        0.75445073319736       -9.72868981532064
O           90.26518529620060        0.60895471013369       -9.96744549601068
C           90.80964343219749       -0.03085133957937       -7.10903251740811
C           90.83168415393264       -0.22470430468638       -5.73771735993596
C           90.15511742531187        0.42002542014885       -2.77879809058438
C           88.87727450222745        0.55116944946964       -3.42049965112799
C           87.93216551205467        0.39419736407423       -2.45996912673297
N           89.96909631311769        0.19715255960279       -1.44098127878610
C           88.62424386235968        0.17404193682230       -1.22543687566591
C           87.99093757670711       -0.03046018865674        0.01078788643283
C           88.64926213918432       -0.21446244181109        1.23696496892901
C           87.98321922485806       -0.46873749974537        2.47934759963649
C           88.94694536629420       -0.59431675574086        3.42601511854974
C           90.20961377192758       -0.40695493982950        2.76850957724066
N           89.99649986062941       -0.18494111552537        1.43446182431613
C           91.45532104176205       -0.46974820271222        3.39630315720878
C           91.47065672075182       -0.69492376606652        4.86293431869723
C           92.06211955939995       -1.84491788797621        5.39147399247937
C           92.07768654350160       -2.06285256544449        6.75930919163020
C           91.49879376975915       -1.11708878147564        7.58976663761762
S           91.52670716669078       -1.38154260770156        9.32307106553460
O           91.40381403317645       -0.14354500313028       10.03614868890716
O           90.11581280853537       -2.17325579006787        9.47051666849611
O           92.59094213906381       -2.27334493940235        9.67466541618487
C           90.91041286785648        0.03604906440421        7.09619728954484
C           90.89690464306685        0.24156891521714        5.72641346177877
C           92.68755642033035       -0.33767817332063        2.75278096682859
C           93.96796657732676       -0.34230321081620        3.40780403954056
C           94.90797919656887       -0.17490782038039        2.44558568173078
C           94.21131526912266       -0.05704930041130        1.19638174199484
N           92.86582852725834       -0.15596362231684        1.41168173217644
H           95.90863957172920        0.15519906841945       -0.03983582724069
H           95.93395455178151        0.43255593655859       -2.63921171258801
H           94.03696119829743        0.64746392969530       -4.53015719651683
H           92.29644711573121        2.68569523081552       -4.78558897228510
H           92.25615233692479        3.04330021448328       -7.24407931479933
H           92.85788790182849        0.75871289102778      -10.68462844912323
H           90.39151039740449       -0.77674203713679       -7.77323701097832
H           90.43743139903604       -1.14181216413247       -5.31576499217751
H           88.72676104420829        0.75258462658290       -4.46865657284719
H           86.85986191113703        0.43035075767005       -2.56629000035099
H           86.91473062653017       -0.54861244827409        2.59959240180047
H           88.81889609625593       -0.80805278634260        4.47476022826924
H           92.49990711719602       -2.57721442384385        4.72317631576681
H           92.53353211010811       -2.95038353791553        7.17980381540417
H           89.83629140344986       -2.18441003669678       10.39401857428543
H           90.47833614617231        0.76048278933961        7.77512155599948
H           90.45254425651171        1.14269515812885        5.32012759286749
H           94.11947630668290       -0.44724283147063        4.47000672508192
H           95.97941065275569       -0.12484795349978        2.55809383387961
C           57.05195616530533       -0.01453734765645       -0.05562161162496
C           55.83138021868326       -0.00711366497472       -0.04712521833541
C           58.40452989352059       -0.01928821950499       -0.06421873776287
C           59.62527016804479       -0.02185268490301       -0.06639571341998
C           70.53117616888984       -0.03524883963366       -0.02616143782654
C           69.30926794411170       -0.03376134877747       -0.02914032928711
C           71.88079682875092       -0.03692422824337       -0.02326937338192
C           73.10270585148062       -0.03789402179427       -0.02194266029875
C           84.00777800842820       -0.06889419677631        0.02324991345959
C           82.78706396435679       -0.07262929579338        0.01998115756878
C           85.36045249706352       -0.06108030116527        0.02309041921885
C           86.58101590382942       -0.05085356614842        0.02001335086853
Cu          64.46864811470974       -0.02610082526920       -0.05133965650105
C           61.03467013688679       -0.02263208665649       -0.06463050772896
C           61.67946187436946        1.04175138698032        0.58707324753158
C           61.00025126295655        2.09809546829924        1.27635887047625
C           61.95479347301266        2.93705314403443        1.75220820583471
C           63.22427764703739        2.40137715904960        1.34837060100814
N           63.02436921752945        1.24248155806860        0.64876603889867
C           64.46496859173087        2.97031231417007        1.64467134083167
C           64.46250109690828        4.26199971250583        2.37515276310659
C           65.03961097478825        4.35479911930600        3.64395099629453
C           65.03913770917535        5.55779718669794        4.33063493574196
C           64.45906102201205        6.66455353697968        3.73242666962569
S           64.46815263168412        8.19389218011089        4.59017792133707
O           64.35816870022208        9.29650993288872        3.67990094089392
O           63.04422491195260        8.04951649423350        5.35828295705837
O           65.51573338164241        8.21236147736208        5.56679255201189
C           63.88390764800879        6.60530637862525        2.47334828810011
C           63.88586557234499        5.39606753413696        1.79785773689497
C           65.70701437723606        2.42559921458408        1.31246179988510
C           66.97527608006757        3.04852701978173        1.56694192848233
C           67.93172096494759        2.20850840343749        1.09636493011665
N           65.91010814837291        1.22852072287155        0.68001073808194
C           67.25474402246036        1.07320605846998        0.54471273055574
C           67.90348698167465       -0.03174112782508       -0.03477294258146
C           67.25660755421434       -1.13456996942606       -0.62043616687598
C           67.93505280928592       -2.27213386764917       -1.16554079271122
C           66.98045437843700       -3.10835414989577       -1.64649221537630
C           65.71190068008138       -2.48083483528408       -1.40486107303474
N           65.91285189667674       -1.28501015402068       -0.76946843460666
C           64.47145883400067       -3.02090915827954       -1.75059925356135
C           64.47329829472265       -4.31137370860524       -2.48320162255017
C           65.06459430019626       -4.40317760641477       -3.74558245537915
C           65.07087496946312       -5.60524114914567       -4.43379338913323
C           64.48314073790601       -6.71220419460677       -3.84347342932705
S           64.50226995982563       -8.24103373415359       -4.70180955940153
O           64.39450341065599       -9.34457743526425       -3.79240581739386
O           63.07999394344326       -8.10341792182641       -5.47468103094348
O           65.55299572001921       -8.25438853115985       -5.67521932443414
C           63.89346288103302       -6.65389084066772       -2.59106066009496
C           63.88865010892444       -5.44545874671931       -1.91410943282625
C           63.22966028200594       -2.44880618854521       -1.46523492922383
C           61.96219868097972       -2.98083982296273       -1.88004924776988
C           61.00576889592750       -2.14087571017557       -1.40960315160518
C           61.68197416170494       -1.08719536157461       -0.71339625644624
N           63.02687129483922       -1.29043807954220       -0.76557172036419
H           59.93017558427645        2.17524288881043        1.38353488695707
H           61.81566249410753        3.83230511692534        2.33629763750876
H           65.47916221697177        3.47435775129874        4.09796436580249
H           65.48387969342203        5.64115479853918        5.31428304113519
H           62.75867410755177        8.90820299428809        5.69330057927055
H           63.45019696813649        7.49306788580860        2.03040245942880
H           63.45181126109533        5.33054518203381        0.80696654008465
H           67.11243001952528        4.01105239026020        2.03242611839646
H           69.00169982657239        2.34072553312394        1.11021756121133
H           69.00460445578921       -2.40840644232065       -1.16827102373095
H           67.11890391503113       -4.07123604373158       -2.11084402194581
H           65.51049174938558       -3.52259078618128       -4.19309975267113
H           65.52701689221661       -5.68794296836673       -5.41225902451329
H           62.80219317604347       -8.96296914231588       -5.81391049469904
H           63.45415003094978       -7.54189129749031       -2.15416244623374
H           63.44346947242450       -5.38085849409016       -0.92811265215837
H           61.82570852727920       -3.87467863347617       -2.46695303727055
H           59.93633193917431       -2.21547740065454       -1.52490181492679
Cu          77.94364268217085       -0.05277847520395       -0.00552464575452
C           74.50853616594743       -0.04083277373152       -0.01897933199589
C           75.15758548396818        1.03511009582600        0.61208562074539
C           74.48023791850312        2.10655628707160        1.27880192769121
C           75.43685589624369        2.94490055003811        1.75199761741497
C           76.70560573011724        2.39256927663559        1.36993698260150
N           76.50275404245639        1.22612384735266        0.68221335559025
C           77.94757170059698        2.95007187016442        1.67936781427407
C           77.95073729361474        4.24625984950758        2.40241796670482
C           78.50657345643579        4.33772045375009        3.68069179995738
C           78.51596961816125        5.54557827803228        4.35883354174921
C           77.96708528689092        6.65825982124657        3.74261524391068
S           77.99317471866119        8.19460516850465        4.58807681093409
O           77.93290918178219        9.29155975453290        3.66627220668352
O           76.54809845332673        8.09534135830881        5.32182625935906
O           79.01798059373979        8.19358468882308        5.58851959000470
C           77.41225943032998        6.59988085094800        2.47439995327720
C           77.40388808465259        5.38585386276336        1.80748598483278
C           79.18813156365262        2.39086429540924        1.36548031006232
C           80.45878375950399        3.00209862982236        1.63607513472005
C           81.41312513255021        2.15641006528981        1.17222022656989
N           79.38725479058284        1.19373030273372        0.73263975341693
C           80.73282551790894        1.02937801263467        0.60742275500122
C           81.37753351427834       -0.06883422115791        0.01474593552837
C           80.72987844649109       -1.16054905216626       -0.58627844417789
C           81.40641487598789       -2.29167926424379       -1.14731621701548
C           80.44989792415116       -3.12585287863135       -1.62736319995564
C           79.18188430200961       -2.50368036789134       -1.36961790325377
N           79.38442708329090       -1.31166209978178       -0.72843146419776
C           77.94005174548154       -3.04950809043275       -1.70159079496208
C           77.93919354282690       -4.33989831192284       -2.43492023323437
C           78.50699502425537       -4.42579961857358       -3.70831688396286
C           78.50906666941698       -5.62720756283055       -4.39791053674461
C           77.94100799854323       -6.73908251545782       -3.79781456515719
S           77.95385952496359       -8.26687265496089       -4.65879052119626
O           77.86239344498111       -9.37185872690977       -3.74922144441307
O           76.52114820679155       -8.13371074736457       -5.41125740687008
O           78.99204975952678       -8.27421322010456       -5.64539982165968
C           77.37506213457611       -6.68649433782917       -2.53428298323716
C           77.37426201219409       -5.47885548241140       -1.85586243090299
C           76.69968816335006       -2.48341105392474       -1.40144150991667
C           75.43016080657543       -3.02420956145288       -1.79737472847771
C           74.47566887609931       -2.18232924795943       -1.32625658434931
C           75.15515415257141       -1.11921791816479       -0.64848758642155
N           76.49945472230011       -1.31925789860306       -0.70903854409298
H           73.40976689086575        2.19381155717986        1.37376647476288
H           75.29974011302714        3.84975325246198        2.32157223367731
H           78.92265352351875        3.45295046136545        4.14822181804844
H           78.94544000656704        5.62812155302676        5.34930660654906
H           76.25727351109467        8.97082293700864        5.60499811263469
H           77.00263874658378        7.49210649942000        2.01767783075578
H           76.98591685186298        5.32083398537094        0.80967458204603
H           80.59897455164895        3.96140166566430        2.10721114218927
H           82.48387192960344        2.28018900031243        1.19711296457253
H           82.47618836797872       -2.42553614559328       -1.15914375920965
H           80.58654328659780       -4.08413741317673       -2.10162416652189
H           78.93756408409601       -3.54147016091837       -4.16339010902304
H           78.94693288153306       -5.70538084006851       -5.38506269038498
H           76.22939915110611       -8.99717458228825       -5.72826401023096
H           76.95054926770172       -7.57819069870919       -2.09032341474337
H           76.94733631926144       -5.41836685638916       -0.86156771944852
H           75.29107567552613       -3.92441429245562       -2.37377542239310
H           73.40543311849585       -2.26142631668382       -1.43049786715175
