165
 energy: -296.476875169990 gnorm: 0.000363905306 xtb: 6.5.1 (b24c23e)
Cu          27.28337706535993       -0.03189248924019       -0.02202650278466
C           23.87742913211686       -0.05336100402988       -0.03876355037130
C           24.50846750705807       -1.28019740173377        0.10076152712722
C           23.82883312190817       -2.53297191560010        0.26868013271030
C           24.78406848587489       -3.48667998375494        0.39610944453610
C           26.05735670614083       -2.82547134596611        0.29866943533934
N           25.85855033949691       -1.48619010852805        0.12365660001238
C           27.29963360547014       -3.45455444694278        0.40573862727357
C           27.30677137208076       -4.92649414641667        0.58669455367778
C           27.83393801096781       -5.51297136879144        1.73674201314566
C           27.81420872967129       -6.89309814076906        1.86177427875109
N           27.31640086462603       -7.69808947938582        0.92848651703178
C           26.81419363238275       -7.14737883750308       -0.17202323200428
C           26.78498810012245       -5.77828765749796       -0.38611165013589
C           28.53518972812147       -2.80605302573754        0.35490953531640
C           29.81063607128647       -3.46215446809464        0.41660941361365
C           30.75952903175903       -2.49847045937640        0.30625011958220
N           28.72766720843228       -1.45916783950882        0.19902569821840
C           30.07270944493828       -1.24891264586837        0.16931123994329
C           30.71062996585379       -0.01055612439363       -0.00796889126414
C           30.05887865750441        1.22010124540012       -0.18781409710175
C           30.73086641507265        2.47035090986921       -0.38017384581747
C           29.77087938245993        3.42210725782664       -0.49843472338768
C           28.50361549265136        2.75982408156208       -0.37003610531242
N           28.71162762653327        1.41793171084876       -0.19337429587589
C           27.26062404980618        3.39233062380914       -0.43843554835296
C           27.25148392999280        4.86610125280686       -0.60386378827694
C           26.69175722985125        5.46681849686676       -1.73078349039375
C           26.70638640476179        6.84864319797963       -1.83789909286978
N           27.22891541093990        7.64199466099717       -0.90829366977164
C           27.76304193483823        7.07754886405012        0.17010208599801
C           27.80014867078985        5.70587936048076        0.36477218019160
C           26.02530179130973        2.74571787522054       -0.35926467020441
C           24.74497841237668        3.39963043735222       -0.39097276879472
C           23.80072331884729        2.43265641238311       -0.28294651308256
C           24.49444551991854        1.18105519560001       -0.17417231231085
N           25.84190344934274        1.40045655978834       -0.21572420834011
H           22.79235082730150       -0.05864029317228       -0.03081433982262
H           22.75699993894477       -2.65169247831406        0.29155648173742
H           24.64636651720309       -4.54401657420682        0.55537690625409
H           28.23949455786202       -4.89558035446160        2.52945502419774
H           28.21531515259633       -7.37248911203912        2.75005837950227
H           26.41746565655274       -7.83062847366374       -0.91722210665866
H           26.37616412837940       -5.37496782688223       -1.30495627019660
H           29.95741284615261       -4.52544837889042        0.51559689621206
H           31.83129501474079       -2.61637457352592        0.30486037361393
H           31.80108284151165        2.59555225186680       -0.41959017990097
H           29.90479326632868        4.47812121639254       -0.66836958124415
H           26.26473202555406        4.85961340565655       -2.52008834044896
H           26.28021751063907        7.33896665459022       -2.70834378507904
H           28.17990830020213        7.75168191506283        0.91269870060319
H           28.23568222224858        5.29076433943137        1.26592683637141
H           24.59546914534715        4.46407829458129       -0.47395505091797
H           22.72782707712572        2.54289924685017       -0.26966617170185
Cu          49.08709954990304        0.04802911439613       -0.02158985658452
C           52.49407494410259        0.05524894784682       -0.05842749613135
C           51.86481518294893        1.26668554551161       -0.30155992782802
C           52.54629734918196        2.50838952091837       -0.53237326712589
C           51.59244778241411        3.45600136168118       -0.70683641222137
C           50.31827174469730        2.79899875447958       -0.59409952433688
N           50.51505962456471        1.47204535648445       -0.34043465692602
C           49.07668199175744        3.43003604865971       -0.69507064118045
C           49.07166776100647        4.88758448737263       -0.97009347504795
C           48.54545466400854        5.79508378207511       -0.05136549170326
C           48.56861385296942        7.14851372278410       -0.34869883519000
N           49.06913964119716        7.63303851996072       -1.48074151392200
C           49.56999788685719        6.77460298761145       -2.36321352987576
C           49.59573864593878        5.40461002693666       -2.15409697056742
C           47.84002129907037        2.79741761825820       -0.55326494931707
C           46.56654940690463        3.44383111223204       -0.69708465413785
C           45.61550469581786        2.49604376352423       -0.50125336833584
N           47.64399622759735        1.46827270626323       -0.28708854469301
C           46.29825106805282        1.26302332071192       -0.24725651094271
C           45.65688326371849        0.03897729386384        0.00511090541400
C           46.30868680520121       -1.18035592271898        0.25364023651946
C           45.63641832712188       -2.42736942662915        0.46350400707351
C           46.59537089465834       -3.36939122940203        0.64835700880447
C           47.86307139336530       -2.70241007851995        0.55665190740448
N           47.65599924030749       -1.37167437098516        0.30770957355880
C           49.10516094573535       -3.33027018522577        0.66994570628027
C           49.11236820898302       -4.78383025757871        0.96351470575414
C           49.65910029752620       -5.70070573875462        0.06636968727653
C           49.64231394640608       -7.04971557759273        0.38381092959919
N           49.12971314925465       -7.52124681427922        1.51586914475164
C           48.60824992127659       -6.65388171523079        2.37756475649956
C           48.57416087411357       -5.28763082974179        2.14709688378559
C           50.34139309848099       -2.69708240446217        0.52500381752204
C           51.62087366193742       -3.33289304296733        0.68741412382635
C           52.56672458708520       -2.38394884617932        0.47960292991532
C           51.87484124031617       -1.15874115078535        0.19743488634767
N           50.52686636776336       -1.37584526634128        0.23553182073945
H           53.57917023356006        0.05985556999968       -0.05758331150279
H           53.61831462351358        2.62647189520004       -0.54903613540596
H           51.73175919568314        4.51002404325441       -0.88544738648122
H           48.13794797544384        5.44669823159560        0.89023674245127
H           48.16880893985584        7.87462794881359        0.35319905945745
H           49.96926203522573        7.20020885177449       -3.27922033597102
H           50.00409783632027        4.74184079119664       -2.90776320301705
H           46.42224522589336        4.48667027891946       -0.92856920984087
H           44.54434083168896        2.61453131507449       -0.52468287842713
H           44.56667576638327       -2.56039033012496        0.45632270406177
H           46.46012677710349       -4.42552990286391        0.81615663683383
H           50.07737097747348       -5.36336127809793       -0.87454691189176
H           50.05822242324913       -7.78281655893154       -0.30123553326752
H           48.19923795289323       -7.06914118253950        3.29403911233233
H           48.14897833394362       -4.61692572827630        2.88428411714342
H           51.76881431753059       -4.37018527771828        0.94122359252030
H           53.63961287443395       -2.48811045483550        0.51811229655687
C           32.12198140484722       -0.00457076368120       -0.01401256748397
C           33.33774231919279       -0.00126726779282       -0.01637881801865
C           43.02936707738462        0.02148915952958       -0.00317486478955
C           44.24554888790524        0.03105801761790        0.00061949074688
Cu          38.18223055972582        0.00178051255401       -0.01823990661178
C           34.74874043300624       -0.00049063001832       -0.01825623129230
C           35.39523335450660       -0.91939889350602        0.82463296115438
C           34.71804353110774       -1.81062255009624        1.71846102992529
C           35.67414701057822       -2.52093684896241        2.36887195486116
C           36.94322272563033       -2.07249427563384        1.86987904875397
N           36.74076194034595       -1.09316409685096        0.93501476916726
C           38.18455438206549       -2.54480736881285        2.30105387643602
C           38.18462957522750       -3.63230510319380        3.30957715393267
C           37.62781505615335       -4.87998658486817        3.03108989487816
C           37.65102107887288       -5.86378218603863        4.00707027719350
N           38.17882141488236       -5.67626328086055        5.21248049144998
C           38.70988051975861       -4.48910452874880        5.48695246814472
C           38.73884552280658       -3.44548360732910        4.57542224947233
C           39.42484568867248       -2.07373184621412        1.86560388642244
C           40.69458101802651       -2.60212065438735        2.27629507808302
C           41.64988631320786       -1.88737480321933        1.62965590460910
N           39.62657293698367       -1.05824778035365        0.96967528245778
C           40.97232583451360       -0.92624169006759        0.81206161375358
C           41.61841423304806        0.01367390385356       -0.00869135857415
C           40.97016800167846        0.94592104803383       -0.83649773395246
C           41.64556806795792        1.90671629830040       -1.65625552884696
C           40.68911064112706        2.60972481871064       -2.31383387852730
C           39.42088582625524        2.07544773599927       -1.90632748298680
N           39.62451991635630        1.06737400825351       -1.00261938648167
C           38.18014876137065        2.53660123826144       -2.35082236349792
C           38.18131735390424        3.61225091017394       -3.37203899984268
C           38.73936385259812        3.40871248010679       -4.63367892138554
C           38.71422973117717        4.44046448186114       -5.55861195165542
N           38.18364158398496        5.63158986610994       -5.30075323973031
C           37.65224549478508        5.83492511698048       -4.09957713935651
C           37.62473973225292        4.86364539567366       -3.11110096975982
C           36.93953235335923        2.06446822787292       -1.91795563437440
C           35.66979694006068        2.50793390006195       -2.41959818868734
C           34.71480325938189        1.80176066554690       -1.76308672108447
C           35.39346813315578        0.91675927259997       -0.86417757871924
N           36.73869699529452        1.09129912816205       -0.97624668899555
H           33.64798444928926       -1.86968445157831        1.83714028952854
H           35.53626499057662       -3.27172193429907        3.12994651912437
H           37.19601302237800       -5.08208207566510        2.05809076219675
H           37.22705775358978       -6.84452708931547        3.81195084759859
H           39.13093853657265       -4.36551793026731        6.48050269468316
H           39.17215148496328       -2.49048684857278        4.84798528855833
H           40.83359038548459       -3.42216304516570        2.96195747828800
H           42.72034078815206       -1.99749037930849        1.69384277958547
H           42.71546559411320        2.02377857616687       -1.71594481816961
H           40.82646760882621        3.42590435122507       -3.00439744039868
H           39.17320674722110        2.45003379156885       -4.89209928299000
H           39.13837242359215        4.30388173239518       -6.54912842991421
H           37.22916022778688        6.81865476663409       -3.91813045252344
H           37.19033425263112        5.07870065751042       -2.14205869820373
H           35.53081165500651        3.25319428101362       -3.18589054565438
H           33.64460290567896        1.85882731265215       -1.88139624667784
