154
 energy: -271.063113497282 gnorm: 0.000753633101 xtb: 6.5.1 (b24c23e)
Zn          24.18196604432175       -0.02436691573395       -0.02290139151537
C           20.75499786549575       -0.05135780693136       -0.05510280068880
C           21.39423383919734       -0.92395840085613       -0.92917053504151
C           20.73698446873710       -1.82693350269447       -1.83619696717268
C           21.70863132612712       -2.49658374024319       -2.50550559774415
C           22.97056766324200       -2.01064060145416       -2.01518808742386
N           22.74479367233000       -1.06053692957414       -1.06320005649915
C           24.22221510095451       -2.44074601322185       -2.44243492631443
C           25.45857159688846       -1.99442915077989       -1.99174898203832
C           26.73198571686683       -2.46595872726243       -2.45978306000216
C           27.68474363523731       -1.78312820745133       -1.77456597474418
N           25.66045464831167       -1.03747919807138       -1.03404206849117
C           27.00191182307373       -0.88888135382320       -0.88243460153359
C           27.63381864287817        0.00316807252200        0.00881732722831
C           26.97146371223383        0.88419121268233        0.88835357915695
C           27.62322521969241        1.78813449037119        1.79379741380917
C           26.64709300659504        2.45529582979276        2.46141004807194
C           25.39021171758393        1.96439242564814        1.96914914708348
N           25.62506890876798        1.01142067316225        1.01504569154581
C           24.13880397150330        2.39166671682486        2.39643493187899
C           22.90208273403510        1.94256819492471        1.94585363459632
C           21.62363338738978        2.40885777039909        2.41193087779550
C           20.67537921124685        1.72395203603070        1.72470218707737
C           21.36367417498777        0.83119497819133        0.83072772880730
N           22.70914104494694        0.98886564796478        0.99022634487476
H           19.66948944187460       -0.05997052969946       -0.06540916826418
H           19.66726715423983       -1.92533141374639       -1.93734117426352
H           21.59549011003588       -3.25408623902270       -3.26551932133208
H           24.23547599990630       -3.20786111333928       -3.21069110445913
H           26.86792253382970       -3.22302930289526       -3.21624580287635
H           28.75663003528185       -1.86964019483977       -1.85839788119289
H           28.69189486567148        1.89127364759237        1.89770423659708
H           26.75695536568911        3.21350261216915        3.22097585445175
H           24.12596476554878        3.15872895270747        3.16475693237135
H           21.48406452331482        3.16474770065288        3.16915974125507
H           19.60254049928211        1.80575933410156        1.80565038543606
Zn          64.71968044252505        0.00415041886187       -0.01237145056199
C           68.14634349705196        0.05186678042183       -0.00854589799997
C           67.50519771473162        1.28467470341764       -0.06357048870445
C           68.16028231587194        2.56445590917648       -0.11960207526255
C           67.18707084025050        3.50882988396257       -0.15744915959056
C           65.92620996702077        2.81713542895312       -0.12450277835448
N           66.15429829673711        1.47368422323080       -0.06955399533980
C           64.67353064795407        3.42087256944677       -0.14137684145129
C           63.43833635326830        2.78494219182965       -0.10871986320036
C           62.16364233054064        3.44712813039565       -0.12468510056565
C           61.21247741777086        2.47927642761703       -0.08572507696153
N           63.23881933036647        1.43192228438899       -0.05950779006959
C           61.89713254231763        1.21743073351902       -0.04621975333578
C           61.26848202343242       -0.04357822300717       -0.01480806976986
C           61.93177366621563       -1.28650833628423        0.01765126653945
C           61.28227737780922       -2.56688889844910        0.05422146493612
C           62.25985122969828       -3.50809896512343        0.09332177775461
C           63.51579266812264       -2.81087844850851        0.08012516375443
N           63.27893310789053       -1.46389936605923        0.03226369253399
C           64.76812555371177       -3.41243490396967        0.11456204102688
C           66.00366247987205       -2.77419883360520        0.10142542582177
C           67.28321680309247       -3.43046795514145        0.13777920076608
C           68.22985890593392       -2.45930917720461        0.10286680139135
C           67.53954603887399       -1.19830890035211        0.04498958266659
N           66.19444062766530       -1.42487986129143        0.04725533063119
H           69.23183321018578        0.06686331301396       -0.00722504067725
H           69.22976384870432        2.70714370254783       -0.12819320633340
H           67.29848763496138        4.58108495549392       -0.20325771746064
H           64.65823816644212        4.50568743904135       -0.18395040512285
H           62.02618663722261        4.51655327928165       -0.16179834843587
H           60.14040846821261        2.59802752115434       -0.08434679259008
H           60.21387999585239       -2.71515591538752        0.05177147229332
H           62.15186706434135       -4.58095049755187        0.12853144539011
H           64.78275099210821       -4.49731117564318        0.15565276475090
H           67.42449283750648       -4.49918330003325        0.18407540171286
H           69.30286066358376       -2.57226295411585        0.11469731859973
C           30.26107850887958        0.01643388427690        0.02096223602938
C           29.03887965974203        0.01340352853614        0.01920728840994
C           31.61021404397587        0.01803505987856        0.02146817412767
C           32.83259662022677        0.01380386140633        0.01738018653653
C           43.77455924400928       -0.01739195557645       -0.02480905431074
C           42.55211124727833       -0.01381978809633       -0.01910778858445
C           45.12323920470078       -0.02472104922756       -0.03149241812913
C           46.34563850301634       -0.03153437448438       -0.03527268425786
C           57.28881214025184       -0.07654169242620       -0.02107783133701
C           56.06710569009388       -0.07273894317662       -0.02251776136670
C           58.63975771702705       -0.07039294332623       -0.02144996355673
C           59.86129021632681       -0.06118663363170       -0.01644891445673
Zn          37.69283807192856        0.00051043821378        0.00027892373664
C           34.23717291801936        0.01087957102515        0.01233551180313
C           34.89083761969846        0.94236961927710        0.84548818174334
C           34.23034999712288        1.89172993459064        1.69556511781622
C           35.20020412162498        2.60146050011175        2.32808485213575
C           36.46080300745665        2.09071454323693        1.86910734002919
N           36.23608165388549        1.08386231263299        0.96967385391455
C           37.70841998339446        2.54862829379109        2.27528728429242
C           38.95073142667460        2.08565632785522        1.85928162733808
C           40.21766412948480        2.59056956614585        2.30704640803146
C           41.17859483130750        1.87527597338449        1.66714345994885
N           39.16296646076446        1.07668770183807        0.95888876240885
C           40.50609593887988        0.92815032342444        0.82393113447546
C           41.14798169030134       -0.00898926446953       -0.01231730064981
C           40.49381496911538       -0.94271360375839       -0.84294181202454
C           41.15475808112847       -1.89387548564957       -1.69068001312087
C           40.18518383530766       -2.60412144688065       -2.32308848140415
C           38.92444768173147       -2.09183457937459       -1.86635852109272
N           39.14889501116378       -1.08378096509733       -0.96795090064110
C           37.67696897040136       -2.54842015613161       -2.27392740082219
C           36.43474700243225       -2.08325633400378       -1.85968211245864
C           35.16783409023888       -2.58654183494491       -2.30927184450914
C           34.20695854389714       -1.87047497346180       -1.67017059504307
C           34.87941695227833       -0.92459480015544       -0.82554255188658
N           36.22265948540137       -1.07443422610784       -0.95931769404548
H           33.16069889327523        1.99421924791041        1.78897339063644
H           35.08349645894834        3.40093087327889        3.04297140546242
H           37.71277628790050        3.35861793445373        2.99849910327066
H           40.34479158852814        3.39026918639900        3.01990796842143
H           42.24947400573540        1.97248578457821        1.75184267203353
H           42.22439217200262       -1.99738285463117       -1.78312873442238
H           40.30253881316441       -3.40475955837776       -3.03654537666322
H           37.67254455606894       -3.35886326205540       -2.99659271773101
H           35.04095992314621       -3.38580083035000       -3.02266387248744
H           33.13608731791648       -1.96649721751802       -1.75613167671831
Zn          51.20480002610939       -0.05154129560207       -0.03150252489121
C           47.74988449577667       -0.03744511419843       -0.03689821002860
C           48.40095115264000        0.90063460342163        0.79123710423333
C           47.73708782445646        1.85704659742299        1.63081540980173
C           48.70440687308852        2.57491460456197        2.25789564867503
C           49.96684702347993        2.06215935626411        1.80602126789407
N           49.74549384051982        1.04510082768387        0.91710594905973
C           51.21281263265082        2.52918563523196        2.20605821754046
C           52.45650776754999        2.06385227552995        1.79601628481908
C           53.72189556953626        2.57967069588783        2.23616951782632
C           54.68512221429998        1.85537850362045        1.61039392857357
N           52.67171404030896        1.04046058523332        0.91353760229946
C           54.01594381105129        0.89096919676464        0.78382430548299
C           54.66035262197157       -0.06777696772190       -0.02390831966565
C           54.01002354364153       -1.01994438969675       -0.83464080574877
C           54.67343863991302       -1.98890912434427       -1.66029500376906
C           53.70601919950365       -2.70281442785425       -2.29152815449562
C           52.44366554790306       -2.17572782360525       -1.85581124754993
N           52.66490774402053       -1.15612676433279       -0.97046440660499
C           51.19776113415330       -2.62914685687311       -2.27262017779764
C           49.95399624914165       -2.15263663994683       -1.87688301979580
C           48.68865699779089       -2.65390390031120       -2.33351141659529
C           47.72543192631154       -1.92954413105327       -1.70749128078615
C           48.39483980336958       -0.98001816228640       -0.86438422218843
N           49.73840686295593       -1.13523917271031       -0.98683363281607
H           46.66711845326729        1.95847251770868        1.72169704243320
H           48.58466243578645        3.38120863309877        2.96455609550925
H           51.21480898490569        3.34900922098765        2.91805171498209
H           53.84606514659598        3.39195513020145        2.93518601240730
H           55.75563990861821        1.95602018571388        1.69528280598546
H           55.74332376485854       -2.09966507857153       -1.74049927028309
H           53.82526502713660       -3.51486876619777       -2.99166331860041
H           51.19647148769338       -3.44730686954454       -2.98654749348661
H           48.56408622049096       -3.45767324581032       -3.04225165017006
H           46.65489661749181       -2.02197467013431       -1.80141647235256
