152
 energy: -229.695993844495 gnorm: 0.000562288022 xtb: 6.5.1 (b24c23e)
Zn          15.76421307518479        0.07596309960480        0.03159494544876
C           12.34555671192713        0.14273905114508       -0.03114547966884
C           12.98065306725511        1.27902948035651        0.45719697486796
C           12.31632315729770        2.46139281817428        0.93241397424763
C           13.28234310940347        3.33297978759878        1.31752226282562
C           14.54892409331716        2.69339810370883        1.07979232822649
N           14.33100184838622        1.45067287473959        0.56058926744263
C           15.80034122417513        3.26004658747777        1.33732030398676
C           15.81370756340534        4.64175533057569        1.90219629820605
C           15.76888957143260        5.74558438611215        1.04580981709896
C           15.71726995838130        5.53722773661877       -0.44447773366587
C           15.77069783071772        7.02797939131297        1.58174724782677
C           15.81551652012656        7.22702369368564        2.95789403201065
C           15.83217772295722        8.62105463322738        3.52505419968960
C           15.86461915642182        6.12177196769676        3.80099336383575
C           15.86385462914080        4.83055756485208        3.28609302592562
C           15.91523351440729        3.63868577072719        4.20468343688851
C           17.03687938452911        2.65247634197706        1.10983927676670
C           18.31376578794914        3.25608905818929        1.37154022573134
C           19.26261359533989        2.35119307873103        1.01791564149678
N           17.23329282618439        1.39550433332254        0.60260944199212
C           18.57538046993383        1.18779575058131        0.53715946759062
C           19.20596222936575        0.01520521479561        0.07275975880157
C           18.54685455103977       -1.13758426066797       -0.40143387709869
C           19.20489218919672       -2.32594976112457       -0.86177717678278
C           18.23403444559668       -3.19978668147579       -1.23310100488659
C           16.97286013502524       -2.55101100519559       -1.00482564496876
N           17.20040846977435       -1.29992217593446       -0.49644392472519
C           15.72188947774590       -3.11299310786379       -1.26788265119193
C           15.70201103962989       -4.49462151725585       -1.83266011958012
C           15.80484471594582       -4.68489471229173       -3.21424167270619
C           15.94125111640828       -3.49533583951574       -4.12712632767778
C           15.78061831550479       -5.97431584503203       -3.73046472279512
C           15.65625339759225       -7.07828486127337       -2.89140637789135
C           15.62364345714702       -8.46563409373940       -3.47412188507040
C           15.55638957014067       -6.87806967337301       -1.51961438216843
C           15.57831594635195       -5.59565983121542       -0.98167173571573
C           15.47101750453383       -5.38704044425410        0.50563141262703
C           14.48555819374881       -2.49702435234116       -1.05462831879765
C           13.20423979334385       -3.08532675727243       -1.34092325393104
C           12.26021970386488       -2.17412969180252       -0.99502583349645
C           12.95302887059054       -1.01886433123414       -0.49441455569001
N           14.29832590701820       -1.24543368603303       -0.54485758941657
H           11.26036761726328        0.16473716862890       -0.05290119364571
H           11.24620910503260        2.59545332793642        0.96320101198037
H           13.15959648629297        4.32257372198438        1.72863651885540
H           14.80141235595630        5.01110636314934       -0.72118714860225
H           16.56275244761019        4.92926317363885       -0.77176302813998
H           15.74496722487356        6.48987030330295       -0.97266376355428
H           15.73418588123475        7.88455916475943        0.91647426666056
H           15.39773385696135        8.63926173627770        4.52485699377240
H           16.86093062790681        8.98230508256960        3.59479785949600
H           15.27534937866694        9.30670096948722        2.88571346736577
H           15.90078396041306        6.26756506089632        4.87573997533007
H           16.82531637043122        3.06275343246486        4.02528705522884
H           15.90011576581603        3.95005541147789        5.24877550436744
H           15.06321869597577        2.98125712782695        4.02165871154803
H           18.45710375185353        4.24710294925541        1.77204346408388
H           20.33472247059746        2.45450813650646        1.07391990502033
H           20.27384095211855       -2.46598907541414       -0.89283324275619
H           18.35267316440667       -4.19725320820097       -1.62556556959603
H           15.11111782108526       -2.80298888848444       -3.97516093648806
H           15.95338433880035       -3.80483769035277       -5.17179323979200
H           16.86704894869678       -2.95818594182362       -3.91154856374908
H           15.85952785406338       -6.12267000227985       -4.80259285714699
H           16.48207132679825       -8.62476265779187       -4.12883878496520
H           15.63857675023745       -9.22063505558507       -2.68819653561897
H           14.71796325587436       -8.60273385662005       -4.06858021944378
H           15.46079943407486       -7.73205720241812       -0.85690255943056
H           14.56449576259142       -4.82732964559432        0.74457247737770
H           16.32390500298944       -4.81163674026228        0.87042241429634
H           15.44037923392557       -6.34066586345758        1.03191147877382
H           13.05764596370849       -4.06981307436507       -1.75646278705680
H           11.18758057858349       -2.26411920108371       -1.06848543555656
Zn          29.25201425173799       -0.07586893646476       -0.03040374666912
C           32.67075724507685       -0.08129125895619       -0.11997174951774
C           32.03570144815285       -1.23897128403991       -0.55522758367015
C           32.70001385543621       -2.42110571434092       -1.03103026788186
C           31.73396147740923       -3.31623812432047       -1.35760597612458
C           30.46739103443428       -2.69003720006227       -1.08656336423889
N           30.68532432442082       -1.43405185015883       -0.60034883363683
C           29.21595915672029       -3.27729891219166       -1.29267971645139
C           29.20257243759895       -4.66546149529700       -1.84147642286751
C           29.24747618315423       -4.86947224976470       -3.22357308912362
C           29.29905869417299       -3.68766580486549       -4.15508679737475
C           29.24574960176047       -6.16603883875966       -3.72427084014802
C           29.20092694593642       -7.26213980564034       -2.86872473766094
C           29.18447668120062       -8.66089638936694       -3.42413059609556
C           29.15168598300525       -7.04788994291795       -1.49523058557398
C           29.15237583637684       -5.75953451033791       -0.97324689572205
C           29.10098880104779       -5.53492696176486        0.51467660448336
C           27.97944978464502       -2.68184853085496       -1.03505630665533
C           26.70264820693077       -3.29947168262750       -1.26217654409281
C           25.75372971127674       -2.40210061746814       -0.89007050466469
N           27.78293119578094       -1.42349949616795       -0.53129877307089
C           26.44082386987248       -1.22903410948027       -0.43323670241516
C           25.81029159212098       -0.06120679521265        0.04308819179367
C           26.46945444081024        1.09926410228335        0.49804448569064
C           25.81130811889668        2.27538268725384        0.98873166524701
C           26.78207193620744        3.16342860213522        1.32493486852886
C           28.04329003183880        2.53753190637510        1.04000773300331
N           27.81583305752710        1.28265281373723        0.54099107715001
C           29.29426355768796        3.12522252593440        1.23906491084235
C           29.31414499713888        4.51303542146375        1.78847047420418
C           29.21163321385928        5.60730760475724        0.92384227604503
C           29.07569833652801        5.38180422743403       -0.55861754893318
C           29.23570612966411        6.89484455567241        1.44478129294247
C           29.35958675340895        7.10978875596674        2.81470260048796
C           29.39188295874774        8.51398859607524        3.35557355138246
C           29.45917800403155        6.01511723503592        3.66537908549108
C           29.43739833972039        4.71761016776977        3.16496809351890
C           29.54427405912966        3.53682098740179        4.09309244011242
C           30.53060584256197        2.53284557689549        0.96705989048524
C           31.81195517870445        3.15517429848799        1.16879891629252
C           32.75602017284731        2.25776417644146        0.78867260523454
C           32.06320520885208        1.07777277572101        0.34952216438369
N           30.71786386004651        1.27668362697167        0.46867534005644
H           33.75597694838716       -0.08243599301585       -0.14980483801360
H           33.77013695216664       -2.53944156386752       -1.10100484654821
H           31.85671297000329       -4.31477176474776       -1.74650320589996
H           30.21476041791172       -3.11619928750089       -3.99052704558251
H           28.45339682941214       -3.02249076312530       -3.97076151987626
H           29.27164794949674       -4.00977090111577       -5.19565298291526
H           29.28235234014335       -6.32389211386030       -4.79730146600349
H           29.61875882920881       -9.36595058357122       -2.71492128675999
H           28.15579923719930       -8.96998157881083       -3.62409878866819
H           29.74158425810895       -8.71330626803819       -4.35997763811941
H           29.11549382125558       -7.89695266804636       -0.82038164735208
H           28.19096944139039       -4.99493969944964        0.78376638345055
H           29.11600751436374       -6.48225786637434        1.05285677869701
H           29.95306649486151       -4.93378421466534        0.83753140934513
H           26.55940037992594       -4.29220055342318       -1.65843777676260
H           24.68166899020134       -2.51628397721469       -0.91952311156018
H           24.74235046619362        2.39745871637544        1.06397332288411
H           26.66335583918463        4.15494417127485        1.73218179132874
H           29.90623200259241        4.77767245640534       -0.92847893860708
H           29.06321159258646        6.32871859986318       -1.09757057266158
H           28.15022876786633        4.84461788635220       -0.77549873271592
H           29.15703097405724        7.74454046555868        0.77431480570761
H           28.53342275866711        9.08216709757998        2.99350312649442
H           29.37673450680054        8.51398986004394        4.44539061725990
H           30.29753732597234        9.02484138704331        3.02203345989483
H           29.55438112183722        6.17192518964676        4.73494262954234
H           30.45048223821436        2.96718826395346        3.87756316647302
H           28.69103893645632        2.86955620330191        3.95768328176617
H           29.57519526526479        3.85998784817336        5.13324186411817
H           31.95852462601177        4.15327141937635        1.55049667272811
H           33.82869735363959        2.37310528872207        0.79909180343555
C           21.83329553153518       -0.02669938942529        0.07953810009713
C           20.61122918689600       -0.00629655638185        0.08041163391773
C           23.18276405365682       -0.04282880629032        0.07640470932454
C           24.40503032977833       -0.05152789021638        0.06445048257364
