268
 energy: -516.233191128011 gnorm: 0.000882592492 xtb: 6.5.1 (b24c23e)
C           40.01682659282071       -0.36416010356468        0.16409225213269
C           40.63142932026651       -1.10987401375956       -0.83355233118860
C           39.98464712360673       -1.89085744424918       -1.83223984321662
C           40.95028617916397       -2.45411441851820       -2.61789961893860
C           42.21946248350561       -2.04997240064758       -2.11357049015905
N           41.97539077655161       -1.23159274402041       -1.04702979539825
C           43.48725779685458       -2.39911427154261       -2.59260534413108
C           43.53809232414107       -3.31040584732956       -3.76236784605740
C           44.16107545596223       -2.88501936865803       -4.93938873771191
C           44.20672496727160       -3.72942574762027       -6.04126807088276
O           44.79291386992748       -3.37843668420497       -7.22896202828937
C           43.63940611413866       -4.99954750555099       -5.97557532564821
O           43.67293768568965       -5.85295156829441       -7.04686066936440
C           43.02083984868492       -5.42722562217152       -4.79960066120236
O           42.47608034870929       -6.66706400328994       -4.74426841308042
C           42.96779301688643       -4.58196514181391       -3.69723239766686
C           44.69553348638674       -1.95261180888195       -2.05052189602888
C           45.99988385848120       -2.41431012674027       -2.49049716160393
C           46.91024110720468       -1.76725595898710       -1.73354543558175
N           44.83591464720381       -1.05593494186230       -1.03587881135512
C           46.16121077620858       -0.91280621696524       -0.83290888201857
C           46.78595567338692       -0.04427013225226        0.08486394932332
C           46.13982780135701        0.80875181246019        0.99925947561007
C           46.77073334692322        1.73416642390259        1.87237744610733
C           45.79666065513261        2.35805224923313        2.60138411557503
C           44.54013233395828        1.82073740368544        2.20592627520652
N           44.79911061460699        0.89878070271266        1.22583169510083
C           43.27488594290615        2.15607191584953        2.69951703232437
C           43.22254102876640        3.16577246968639        3.78481301336858
C           43.88477822112304        2.94046632462091        4.99217240933449
C           43.83302676332368        3.89160572114398        6.00448922754699
O           44.46748672656373        3.67904649111695        7.18313639639517
C           43.12330447940487        5.07760108581577        5.80921094905485
O           43.09422462744428        5.99896665939249        6.82279298801229
C           42.46386921492774        5.30339625709855        4.60357585939607
O           41.79178839176305        6.49148973779167        4.48379361190715
C           42.50766964524289        4.35167391513758        3.59270637722936
C           42.07059381590784        1.60760373278469        2.24353359222472
C           40.76845387493525        1.89410944572643        2.82521727830219
C           39.86818112652091        1.18228671015478        2.11731115594965
C           40.61925960887910        0.45749493198300        1.10781428673198
N           41.94290353711787        0.72782810617212        1.22234177808596
H           38.93372027760763       -0.42812118693232        0.19516654526445
H           38.91570865317044       -1.99246006399650       -1.93160682615359
H           40.80155794310709       -3.09023112028783       -3.47520317869132
H           42.69817888729271       -0.77957814324687       -0.49695257987052
H           44.59218099991538       -1.89274264067154       -5.00196465267312
H           45.16628161553634       -2.48871368164738       -7.17814861821638
H           44.13802450476147       -5.40496095506819       -7.77136938396973
H           42.61791766977601       -7.10112927873394       -5.60174589700128
H           42.50267746162319       -4.93285034352695       -2.78505434323674
H           46.17374905651396       -3.14983018410579       -3.25922796525553
H           47.98526079919218       -1.84686124365148       -1.75953213394711
H           47.83473113989453        1.90025438647661        1.92292284686240
H           45.93350386967838        3.12754648317215        3.34339706749494
H           44.08471601425850        0.36432826632429        0.74240268363072
H           44.42322282825299        2.01711991554662        5.16255041536634
H           44.31229622579211        4.44787584310588        7.75634372874386
H           42.56081916515230        6.75334391929134        6.52577865006876
H           41.36219270336790        6.55779679336021        3.62091601232594
H           42.00507388892294        4.54117860222235        2.65150904082665
H           40.59332076302959        2.53960890247711        3.67094127704125
H           38.79847415842700        1.12755515249229        2.24615682063185
C           94.76123031629155       -0.24035120225273        0.35456023117221
C           94.15073021939932        0.55514576753681        1.31554738593910
C           94.80129459857795        1.31586008953797        2.32733796464278
C           93.84013865046292        1.96066709736018        3.05349032147077
C           92.56957932430129        1.60166505706047        2.51926174503941
N           92.80889459038917        0.76280099354829        1.46767210035057
C           91.30554327434405        2.01595660071407        2.95434565070658
C           91.26346638028556        2.92602927547378        4.12572773704284
C           90.68621031880650        4.19248193919980        3.99591729987525
C           90.65021204748051        5.05050189202658        5.08770522114673
O           90.10799812488419        6.30774484837601        5.03349702380502
C           91.18183255094277        4.65150936846130        6.31141978675471
O           91.15684387889938        5.47749237050143        7.40437276853719
C           91.75502632682539        3.38569093551585        6.44345055261670
O           92.26567959366874        3.00510456863358        7.63993447404173
C           91.79829935285866        2.52717626104011        5.35099550286571
C           90.09509993961439        1.63292453528606        2.37033137024231
C           88.79118273106096        1.99188917059452        2.89872308723996
C           87.87826983732822        1.42923266117819        2.07993986137551
N           89.95127728275411        0.85765253529063        1.26058330194473
C           88.62511472532169        0.72644486374112        1.05488676422804
C           87.99845144112479        0.02991249814382        0.00190839434585
C           88.64129255897112       -0.68513571000674       -1.02590347189598
C           88.00752061823381       -1.31848092793140       -2.12785644576842
C           88.97858013152985       -1.89216681440335       -2.90051210047098
C           90.23587017132579       -1.64053737824472       -2.28415367637148
N           89.98046623596282       -0.89744874661177       -1.16145664079348
C           91.49893171312273       -2.05015957589718       -2.72391496923942
C           91.54834798825073       -2.86272179932001       -3.96396573983468
C           90.88073389030551       -4.08580979087716       -4.03550655083065
C           90.92934132696044       -4.83997912056557       -5.20217480764138
O           90.28959068988381       -6.03220584537889       -5.27921973877910
C           91.64135943241409       -4.36840640829562       -6.30632004237069
O           91.66728330020906       -5.13083072519359       -7.44434619172383
C           92.30626194636703       -3.14683233366777       -6.23550343316841
O           92.98039785683498       -2.74782222702486       -7.35979000503172
C           92.26568796759062       -2.39431216499682       -5.06861880414210
C           92.70386620249425       -1.74894863939231       -2.07875872896603
C           94.00241547622915       -2.25845876284782       -2.49115722794778
C           94.90374419812349       -1.75622371264967       -1.62300795121624
C           94.15689342161278       -0.94421825308373       -0.67886167919620
N           92.83470013846870       -0.97244003676936       -0.97738644489130
H           95.84271747303900       -0.30546721818977        0.42040417734577
H           95.86979418039100        1.36228052138272        2.46518036674772
H           93.99281601048095        2.63111461948715        3.88351596889382
H           92.08450343647839        0.35697604351793        0.88467775602230
H           90.28343633782387        4.51485791867324        3.04292192362304
H           89.75592619240570        6.49224641693578        4.15283620325885
H           90.72380821748746        6.30571272431508        7.14293257391572
H           92.13711799545285        3.73197880352818        8.27150627918886
H           92.22820747301397        1.54115315616112        5.47126894866787
H           88.61859434216800        2.57676260384704        3.78771225536300
H           86.80260186878574        1.46635956189949        2.14528387007719
H           86.94395956640490       -1.32024322836935       -2.30398169301202
H           88.83925141718277       -2.43618623276001       -3.82030055519381
H           90.69636078022674       -0.55595611734167       -0.52857423713742
H           90.34023824836693       -4.47066039014333       -3.18037115811411
H           90.44183061829604       -6.40402165366610       -6.16371079256920
H           92.20186518727785       -4.66296664723617       -8.10550734849520
H           93.41223574892702       -1.89539388975632       -7.21709500874951
H           92.77266497651699       -1.43747372351153       -5.02601872566711
H           94.17421838252588       -2.92353997672944       -3.32227523656057
H           95.97153961626508       -1.90757633389366       -1.59494489385948
C           51.98802688359026        0.02068808604883        0.08706798503014
C           50.75986429275247        0.01678421267423        0.09579806623454
C           49.41541784722656        0.00514590735490        0.09981593297117
C           48.19175832431795       -0.01021721497256        0.08709158452990
C           53.33235503946105        0.02081129499783        0.07811161793954
C           54.55628373983003        0.01708155009669        0.06772950140149
C           68.00752627324465        0.00702398323989        0.03602697509744
C           66.77865226052262       -0.00202931017796        0.04236006860505
C           65.43559753527394       -0.00370174442206        0.04588002885133
C           64.21110846922568       -0.00940279608218        0.04398843353908
C           69.35050297230079        0.01163467271481        0.02380319368167
C           70.57490378863403        0.01989384603193        0.00933514962675
C           84.02484434212357        0.05095657553560       -0.09397902956963
C           82.79681067624848        0.04737680984467       -0.10782545994906
C           81.45227108625690        0.04141509452114       -0.11473548328533
C           80.22836653078711        0.03174574452177       -0.11455421504137
C           85.36935254252813        0.04764608047679       -0.07078489599957
C           86.59270386164464        0.04665585329288       -0.04079019369041
C           55.96153657392706        0.01252382358115        0.05626515843784
C           56.58138820416173       -1.25176995383954        0.03276962358085
C           55.92452657541659       -2.50908106019047        0.05219201026112
C           56.88234753659471       -3.48509794250501        0.00234577302617
C           58.15258325356150       -2.85048266915223       -0.05763268315841
N           57.92003504236800       -1.50121450751604       -0.02669374913699
C           59.40826488116507       -3.46830811848985       -0.11763562039065
C           59.41431749915357       -4.95058180951513       -0.18881070736279
C           60.03231582062479       -5.70138579909082        0.81190487353236
C           60.04529368336484       -7.09254750650283        0.75942702045042
O           60.63528411766197       -7.83417644217155        1.73254746176431
C           59.43960655547730       -7.75194218924340       -0.31529284548115
O           59.44123103387874       -9.10742538093475       -0.39854769258596
C           58.82575748735425       -6.99293531849170       -1.31531779928536
O           58.25583152376453       -7.70003149765256       -2.34254239051089
C           58.80208869398182       -5.60636565930397       -1.25880230704311
C           60.63549059639217       -2.80319517736959       -0.11735820073153
C           61.91925282938728       -3.46989791748859       -0.24135501622188
C           62.85900079643321       -2.50301595897367       -0.19171711858576
N           60.81632245238642       -1.45676898620719       -0.01800710083075
C           62.14758046071636       -1.24825848126122       -0.05022333191394
C           62.80729904658301       -0.00555444608136        0.04080823129345
C           62.18699179001603        1.25641113363552        0.12220613939500
C           62.84434855227018        2.50858355432501        0.23664505224801
C           61.88694462255869        3.48538211658477        0.26465875272767
C           60.61623337712868        2.85701637165155        0.15975186561459
N           60.84852795578589        1.50912925355797        0.08746929313815
C           59.36088205575902        3.47705744642201        0.15016371640109
C           59.35628254544490        4.96095344805271        0.19507799341224
C           59.97023283552561        5.69445577673885       -0.82080293189173
C           59.96413021166542        7.08382991152086       -0.77953687279436
O           60.55098146172081        7.80527071942394       -1.76537409510289
C           59.34993523705787        7.74500421743604        0.28540455701677
O           59.36350482989491        9.11480433853778        0.30192557384558
C           58.74085771756830        7.01255669008770        1.30141939783471
O           58.16366149321147        7.73084765999966        2.31526854282737
C           58.73860679513567        5.62388965761959        1.25910262710095
C           58.13323645509470        2.81363026507616        0.10286956727563
C           56.84919166796344        3.48788176340312        0.03522743470592
C           55.90916111023909        2.52011848750715        0.01726618000640
C           56.62054819727721        1.25810948110202        0.06025478988577
N           57.95260697201793        1.46410211678689        0.10125658398883
H           54.85592364050149       -2.64146692523826        0.10420628267785
H           56.72434016476483       -4.55112974499658        0.01695451713483
H           58.64650083168986       -0.79310353579233       -0.03788779722006
H           60.49400255573588       -5.20084061392689        1.65554193628237
H           61.02161173220001       -7.27027495147108        2.41543441235734
H           58.97720090597011       -9.36230841752371       -1.21235674899597
H           57.86260434188241       -7.10506545470582       -2.99413533540388
H           58.33269582081900       -5.04052006458787       -2.05504432941842
H           62.06087789125836       -4.53135085745232       -0.36447178132894
H           63.93095158021604       -2.60196787537200       -0.25346298556442
H           63.91317952154586        2.63655255375307        0.29412774354361
H           62.04523892099369        4.54726345826225        0.35815704346251
H           60.12195988132326        0.80419740820383        0.02125247774662
H           60.43567496442224        5.19288249047404       -1.65947576493823
H           60.43970539697563        8.74853917030772       -1.56132296906689
H           58.89653434487160        9.40882152202026        1.10031113561539
H           57.76050476777214        7.14268327001071        2.96735047600303
H           58.27541269644529        5.06034329029000        2.06049473619470
H           56.70735029678546        4.55560568502261       -0.00815192053099
H           54.83697003145119        2.62371573951511       -0.03181936788351
C           71.97849869887226        0.02143864419882       -0.01034804287929
C           72.60416040991126       -1.24072510674171       -0.02071029833886
C           71.95338430687069       -2.50018699393204        0.02968600954914
C           72.91462922820634       -3.47275080719070       -0.02170404583101
C           74.18065099900029       -2.83372896595496       -0.11561672062881
N           73.94235497202460       -1.48496897505919       -0.09912325651661
C           75.43740124849990       -3.44623436400404       -0.19855395401870
C           75.44826741384780       -4.92899582975876       -0.24915260381048
C           76.09972727802128       -5.66144050541440        0.74402186742276
C           76.11057153000409       -7.05332685211729        0.71745702233164
O           76.73134737873292       -7.77691215051334        1.68490162981729
C           75.46874933573416       -7.73242840852743       -0.32359544180180
O           75.46495777648698       -9.08919354022859       -0.37974956547933
C           74.82348506220418       -6.99184642494614       -1.31771448695314
O           74.21939046675317       -7.71787783305813       -2.31161069776320
C           74.80218065520022       -5.60445068338264       -1.28671387965577
C           76.66098398175778       -2.77440704963499       -0.23516846832832
C           77.94428081824819       -3.43498674131829       -0.39243740304063
C           78.88047996597830       -2.46378506896313       -0.36531843113148
N           76.83730311032937       -1.42765029050824       -0.14075349804065
C           78.16728767016309       -1.21261353654492       -0.20265059580610
C           78.82283606276904        0.03095447725478       -0.10595386721977
C           78.19940572365606        1.28866424304759        0.00355297330923
C           78.85294306213120        2.54194118302287        0.12933415868624
C           77.89221244741329        3.51463444717480        0.17817061239797
C           76.62304804490221        2.88291237368458        0.07458382997164
N           76.85945510607908        1.53713364218357       -0.01633700539011
C           75.36508459236597        3.49818381082303        0.07650512452518
C           75.35253676101087        4.98132477975584        0.14138996962510
C           75.95833194671174        5.73399994572241       -0.86513436739264
C           75.94154254483378        7.12258611050985       -0.80343683370169
O           76.51973155943743        7.86297952729227       -1.78031867719803
C           75.32534382284803        7.76353828728957        0.27265508644998
O           75.32840876336145        9.13302847698286        0.30906288446918
C           74.72462611976415        7.01186367847076        1.27947855891053
O           74.14452481139857        7.71076146660836        2.30517556872839
C           74.73265147172039        5.62410954673134        1.21656213651658
C           74.14030396460670        2.83049389084818        0.02462211715063
C           72.85380373076420        3.50033701951761       -0.04087949101997
C           71.91728168942518        2.52921633636526       -0.06225370312815
C           72.63339450986003        1.26982953161710       -0.02054758060665
N           73.96421152491946        1.47999263054770        0.01910297519086
H           70.88648805187412       -2.63626709425943        0.10275772011309
H           72.76145918906572       -4.53899765973302        0.01306101464426
H           74.66550938729262       -0.77418472538732       -0.13310687893978
H           76.58838730169134       -5.14547030894111        1.56284531556924
H           77.14276485861448       -7.20045417679621        2.34223810650500
H           74.97331055721081       -9.35918863718317       -1.17221863645526
H           73.80606849342819       -7.13538745467343       -2.96197081853811
H           74.30723763470402       -5.05347266299609       -2.07787925880237
H           78.08727926213103       -4.49563575417608       -0.52083817754672
H           79.95099199305324       -2.55762320512937       -0.45385024531488
H           79.92176026576891        2.67321541917516        0.17929095207762
H           78.04723304102767        4.57587846282145        0.28383937055035
H           76.13492144113867        0.83038988632287       -0.08541577667388
H           76.42483470658284        5.24847614962682       -1.71262408600556
H           76.40031910216268        8.80220446237575       -1.56265451804190
H           74.85937765262877        9.41182669558995        1.11165819064331
H           73.74816217427600        7.10988590994371        2.94973079466161
H           74.27519666407947        5.04521433902702        2.01024816858946
H           72.70828697383926        4.56768208220513       -0.08139947664221
H           70.84470270697815        2.62894658644040       -0.11109163113921
