226
 energy: -404.861267402798 gnorm: 0.000380039643 xtb: 6.5.1 (b24c23e)
Co          37.19573944187945       -0.01316426739131       -0.01734973013200
C           33.82720165527783       -0.05225490136899       -0.04476287497557
C           34.49788828980273       -1.25008376650072       -0.17150440283343
C           33.85054040971101       -2.51841351126375       -0.31810233201639
C           34.81236216710839       -3.46258622889783       -0.19257272833114
C           36.04861677384899       -2.76998169956381        0.02737818994084
N           35.85129359952798       -1.41325579959281       -0.01408627685492
C           37.22882458756327       -3.38579662953023        0.42195447934260
C           37.24467129552158       -4.85586754847454        0.60628674338212
C           37.42707690305479       -5.42698694826202        1.86442114351058
C           37.43527781488931       -6.80807561845969        1.98304033943673
N           37.28076812238837       -7.62503506970905        0.94623805190194
C           37.10782247196192       -7.08743837185185       -0.25686354238838
C           37.07992455802664       -5.71900148398378       -0.47565768631417
C           38.39316158421897       -2.66767613835581        0.64736962230759
C           39.63745201103762       -3.25419406460607        1.04653273477218
C           40.58092413661139       -2.28928675957866        0.92931341479052
N           38.56968654105981       -1.33842225390772        0.33603486148727
C           39.91340084178836       -1.11895026592270        0.45319414109046
C           40.58221900812875        0.02069557406299       -0.00040654418048
C           39.89321776598251        1.14900222246183       -0.45130413050580
C           40.53499128262228        2.32505642555477       -0.94757416340109
C           39.57333757474859        3.27279677597509       -1.06327871408968
C           38.34762059751991        2.67289580415443       -0.62905910767398
N           38.54693051816265        1.34674262580285       -0.32248190591798
C           37.16168177002243        3.36570023025127       -0.43321006145202
C           37.15185260963046        4.83450824339105       -0.60591079967248
C           36.30741294609364        5.45337876686395       -1.52718522085888
C           36.33843261769467        6.83336970985728       -1.65136424278065
N           37.13779222576961        7.60849072383862       -0.92552789397624
C           37.94458516856631        7.02697397239403       -0.04364321328460
C           37.98963613339584        5.65537042461364        0.14883287448152
C           35.98518501897611        2.71605833029763       -0.08220005281209
C           34.73804426941359        3.37742123387902        0.16919618699331
C           33.79515162539909        2.41073589548039        0.26790370659417
C           34.46892919536742        1.16003998724412        0.09308765315478
N           35.81938901224714        1.35498281906839       -0.05445088137771
H           32.74370643945161       -0.06486369142526       -0.04855978354179
H           32.79177444180135       -2.64904586324425       -0.47572902620894
H           34.70483008728365       -4.53475671169427       -0.22045326980939
H           37.54609977016204       -4.79933722434738        2.73945184946228
H           37.57193809542449       -7.27765314499609        2.95278574527432
H           36.98671319470562       -7.78088814021960       -1.08392470895910
H           36.94733250823911       -5.32468429776363       -1.47605947499632
H           39.76534834319138       -4.27961121344161        1.35263248777911
H           41.63963941013458       -2.35385272958528        1.12233398891142
H           41.58838670662237        2.40250428514606       -1.16367417275927
H           39.67373295402455        4.28866251046574       -1.40913861959356
H           35.64846602913247        4.86091366936470       -2.15063098875024
H           35.69356333478833        7.33755657412624       -2.36519028301608
H           38.58380623508454        7.68662580546083        0.53582789988873
H           38.65480411073385        5.22623182787637        0.88868986749757
H           34.61354003184992        4.44487165554114        0.25268969206709
H           32.73524196498390        2.51506776691963        0.43698045656015
Co          77.34580025792681        0.03950683819290       -0.02050590254676
C           80.72336224700052        0.05818794558148       -0.05415065880019
C           80.05874424179382        1.16911907698709       -0.52625856630198
C           80.72102830222208        2.33558932589131       -1.02581801014887
C           79.76444196221449        3.27424744834723       -1.21281397697130
C           78.51723364418844        2.67681481614708       -0.83380870576642
N           78.70336072993953        1.37202006158468       -0.45419920986187
C           77.32638183795270        3.37979430867238       -0.71392239896318
C           77.31894827615290        4.83297774292352       -1.00438050594811
C           77.08114545177946        5.76868519439983        0.00093663219708
C           77.08440858293083        7.11743434033146       -0.31872359941444
N           77.30088947942259        7.56930941932798       -1.54969533025147
C           77.52641435182714        6.68278369413095       -2.51378771883368
C           77.54772127308711        5.31461210537597       -2.29208979961827
C           76.14372195478079        2.76815922647534       -0.33031456688574
C           74.89029177223878        3.45312172850861       -0.22401830108200
C           73.94224656453127        2.50556303118050       -0.03233000553405
N           75.96642858786602        1.41258971277210       -0.16560318800459
C           74.61767991975944        1.24644999640227       -0.02547830621428
C           73.94873976662781        0.02051648499554        0.00061559777058
C           74.63305106659833       -1.19671690439341        0.02556289112226
C           73.97697717245512       -2.46579144482387        0.01059375957382
C           74.93808471208435       -3.40128712645851        0.19942536527568
C           76.17695414571673       -2.69694952751114        0.34063384269495
N           75.98330849468718       -1.34449344722075        0.17292925786218
C           77.37456955102783       -3.29847138631091        0.69473979573532
C           77.38815700620840       -4.74709352784531        0.99734806252998
C           78.16610192701793       -5.63434117629190        0.25431267192043
C           78.14196181025707       -6.98311125777971        0.57211171500503
N           77.41132514050207       -7.48039761885647        1.56480796079182
C           76.66947403973437       -6.64094754842372        2.28008954511387
C           76.62241969629541       -5.27769240506763        2.03487732958517
C           78.56245425260435       -2.58350998479545        0.76912942380870
C           79.81620633010348       -3.14989204928114        1.17280581280730
C           80.76001980910877       -2.20438202744804        0.95551632819140
C           80.07986878974955       -1.05907497795158        0.43186473945745
N           78.72660890587429       -1.28052814222613        0.37474036380961
H           81.80693961776173        0.06587405826043       -0.06042083455068
H           81.78459478671951        2.41198786451534       -1.18660480451354
H           79.88104573403706        4.28937967586933       -1.55582720895464
H           76.90993524908875        5.44564669840399        1.02083118990761
H           76.90523488164342        7.86636736173476        0.44715493799346
H           77.69739495671233        7.08304359737516       -3.50883289151354
H           77.72472572594495        4.62758295965024       -3.11091953327856
H           74.76154396322617        4.51967344703731       -0.30950179843403
H           72.87716703054652        2.62927760806673        0.07944709752986
H           72.91628972795104       -2.60475826263262       -0.12312359783371
H           74.82987829216545       -4.47276105971501        0.24141549726905
H           78.76834233776285       -5.27529560401157       -0.57172895088449
H           78.73496882598243       -7.69433185318997        0.00452584501224
H           76.08580059484828       -7.07703543140172        3.08551926304869
H           76.01121699358892       -4.62925029649225        2.65126200964442
H           79.94291620820150       -4.14486282809422        1.56756935440468
H           81.82398817648509       -2.25938294896285        1.12222838038276
C           43.20802562204204        0.03774362916214       -0.00817752675501
C           41.98585024340348        0.03118955343495       -0.00516300949270
C           44.55701158573394        0.04161504721070       -0.01394846137135
C           45.77940600695839        0.04131985139427       -0.01990945926192
C           56.60140066467949        0.02382420551661       -0.01318840902308
C           55.37824413415600        0.02337169751726       -0.01930853796310
C           57.94867748763340        0.02366655288830       -0.01129238072631
C           59.17187010929134        0.02119478773517       -0.01016861953431
C           69.97470437726648        0.00694259501676       -0.00093466376202
C           68.75192395365768        0.00668724299349       -0.00161937131271
C           71.32300410230413        0.01041075735562        0.00046303989459
C           72.54556693610817        0.01218800266062        0.00088117267485
Co          50.57972799656056        0.02645145965859       -0.02834392082859
C           47.18222977305509        0.03504737235822       -0.02580758610376
C           47.86195001187389       -0.64478836459079        0.98852513245803
C           47.20687615319827       -1.30730566613722        2.07091525352783
C           48.16055624165918       -2.01119551238017        2.72841471504268
C           49.39210184167172       -1.78029778270615        2.03679263646746
N           49.20608528493749       -0.88940002933905        1.00650897057836
C           50.57408195266757       -2.45962726111625        2.29982092071630
C           50.56846333867824       -3.53885194877425        3.31179192585909
C           49.74644740951386       -4.65657218429391        3.17210295746997
C           49.77877679944181       -5.64406725759257        4.14400378841982
N           50.55719635251172       -5.57672227530066        5.21918526852653
C           51.34055226028759       -4.51261287155259        5.36209124729697
C           51.38383756962796       -3.47762135698651        4.44135177647981
C           51.75955377999362       -2.15496101008888        1.64737559675975
C           52.99458969087555       -2.84803141156152        1.85713570013233
C           53.95298080189649       -2.13942650293632        1.21233668888149
N           51.94946154503466       -1.07467642702743        0.81634426912096
C           53.29672556654000       -1.02813370618599        0.60008683241002
C           53.97709605492926        0.01984380227365       -0.02748641483812
C           53.29837550585246        1.06029928401194       -0.66907311723557
C           53.95602236044100        2.16518923693294       -1.29117217935407
C           53.00245052678078        2.85497542723707       -1.96325857703077
C           51.76821565814695        2.16056212848617       -1.75436043468192
N           51.95420408042833        1.09330198811785       -0.90667479491357
C           50.58446704159859        2.45691254736756       -2.41438229691416
C           50.58588630200762        3.51761996670163       -3.44579496805548
C           51.40018478265522        3.42916998244792       -4.57430880883107
C           51.36391453202185        4.44696767865197       -5.51434050760371
N           50.58885111694089        5.51958715306513       -5.39087905207479
C           49.81258022047961        5.61354368017801       -4.31614207530143
C           49.77362977175483        4.64479634469399       -3.32582543841204
C           49.39756632096837        1.79429801771375       -2.13298952483108
C           48.16186809562940        2.03490524492175       -2.81425721513132
C           47.20405136962169        1.35996532637297       -2.13321599408338
C           47.86106937315843        0.70068961589092       -1.04991748854556
N           49.20937013761625        0.91849047255498       -1.08958281612225
H           46.15186056508827       -1.23954895410081        2.28194500792230
H           48.05064473195079       -2.63322232629882        3.60164463952928
H           49.10389423437790       -4.75890737900149        2.30576680728406
H           49.15240386936461       -6.52673790280586        4.05462024059933
H           51.96208481603148       -4.48529571024911        6.25227056787985
H           52.02961537138903       -2.62317968749323        4.60503147325935
H           53.10368699725463       -3.75519426326105        2.42868279262049
H           55.01144555060832       -2.33487601876815        1.15192097956008
H           55.01243803771435        2.36809957403299       -1.22016297823151
H           53.11400644150102        3.75183512439079       -2.55041317316753
H           52.03973801716281        2.56714060588543       -4.72204758352679
H           51.98443174914080        4.39821133737704       -6.40433325532990
H           49.19334614920516        6.50274319839812       -4.24261204527284
H           49.13355079629299        4.76899069401717       -2.46049585540023
H           48.05192091555003        2.64534258883418       -3.69559838128682
H           46.14529979473753        1.30851265046803       -2.32959199663974
Co          63.96171037685599       -0.01108166283725       -0.03404178729674
C           60.57266339425484        0.01749732890854       -0.01120296719182
C           61.25343308981517       -0.66364524580860        1.00319679122856
C           60.60501379312203       -1.32511316047932        2.09059132283725
C           61.56078198041234       -2.03643001303791        2.73743378643622
C           62.78666610851880       -1.81640670134540        2.03131671849190
N           62.59621518535592       -0.91092119048647        1.01315746311880
C           63.95952090468852       -2.52563788700420        2.25062439097456
C           63.96322462742425       -3.62023704349162        3.24462184911105
C           63.09155453463707       -4.70337247282999        3.13626513652716
C           63.13500079995470       -5.70364845750223        4.09458125668819
N           63.97069917207820       -5.68120149103004        5.12777336323758
C           64.80345744169139       -4.65145903382819        5.23979146427010
C           64.83956786075609       -3.60714565041685        4.32952411029364
C           65.13216816193021       -2.23518595544507        1.56473322551056
C           66.35381408474579       -2.96913825853684        1.69650242887383
C           67.31038781447303       -2.25292473312573        1.05524784436803
N           65.32561848603945       -1.12045093492480        0.78423439134498
C           66.66705926527160       -1.09222857113820        0.52773203050407
C           67.35035600633222        0.00562759845048       -0.00547381142639
C           66.66889363916526        1.10023851208840       -0.54705802019042
C           67.31674975457619        2.25460470059088       -1.08348199694299
C           66.36512000484385        2.96438542269771       -1.73853701776892
C           65.14142923416262        2.23402403132674       -1.60458092357703
N           65.32761751696476        1.13077561520402       -0.80571213698442
C           63.97232560994047        2.52268396912752       -2.29696908771124
C           63.98460489105834        3.60409833401280       -3.30518079705140
C           64.86359802577006        3.57095077855416       -4.38761195997968
C           64.83439863771406        4.60171806592326       -5.31341630932337
N           64.00605556550516        5.63680485692054       -5.21873500597694
C           63.16822283115417        5.67860032123018       -4.18785001696172
C           63.11789871531060        4.69289838599383       -3.21486659766298
C           62.79462239007899        1.82323357616512       -2.07143487033299
C           61.56952561915932        2.04418494656291       -2.77831102797775
C           60.60959925731481        1.34597392196205       -2.12288545956242
C           61.25498086029201        0.69053232253614       -1.03036488953518
N           62.59803828611678        0.93402541889884       -1.04052805714378
H           59.55253743541954       -1.25156080937714        2.31226751653160
H           61.45458995908201       -2.65944178517418        3.61044890942769
H           62.40189791806459       -4.77043262300051        2.30331819222592
H           62.46962898445484       -6.55945981436347        4.02902306573744
H           65.47174936120739       -4.66052569919865        6.09565919380960
H           65.52669142280149       -2.78110892224745        4.46828347118472
H           66.45660005544229       -3.90787653922139        2.21599832570564
H           68.36079120659718       -2.47199607373063        0.95067322911925
H           68.36709498235679        2.47261793783235       -0.97626084019949
H           66.47245808051311        3.89594817874516       -2.26983834510602
H           65.54744063488491        2.73983236368614       -4.51236851127929
H           65.50514627361773        4.59513023097251       -6.16759430682857
H           62.50626688939845        6.53807847120032       -4.13691635672406
H           62.42672822739723        4.77567452912008       -2.38459907943335
H           61.46637770027648        2.65776391405232       -3.65834831356984
H           59.55656570019035        1.27657193345862       -2.34332206265653
