236
 energy: -423.948942822803 gnorm: 0.000995444124 xtb: 6.5.1 (b24c23e)
Fe          54.56742440437447        0.04095618025690        0.04252304792498
C           51.18353306331947        0.03367592477300        0.12540828736597
C           51.82846086519234        1.25339149952264        0.16133138581601
C           51.15227650368495        2.51516923904975        0.19280614106537
C           52.10605608134469        3.46284671955508        0.35367679799485
C           53.36287350435887        2.77593972042847        0.43735264000607
N           53.18323045601462        1.43060784821155        0.26570911983159
C           54.57423581802925        3.39133058713604        0.73870715722847
C           54.58148199941951        4.84214109202843        1.03293856333785
C           53.84066824793272        5.35548227212171        2.10010849058120
C           53.85038541868848        6.71087270210156        2.37651834105137
C           54.59975802445745        7.58316146775187        1.58151263111867
C           54.60888988498434        8.97943393533816        1.85932703356721
N           54.61980959251152       10.10860229440330        2.08067279432286
C           55.34087259688809        7.07460991780205        0.51065130533336
C           55.33265152787278        5.71730687227517        0.24459000822042
C           55.77765568041937        2.69998637022511        0.78163083186774
C           57.02677505815242        3.28161875488095        1.17410398869311
C           57.97662647638499        2.33556386257900        0.97624592241807
N           55.96206794855762        1.39323511935729        0.39900069448448
C           57.30719292099332        1.18095945056041        0.46513496013908
C           57.97457087471494        0.03838604634171        0.00394529257624
C           57.29578553308450       -1.09923671707704       -0.45345380241381
C           57.95176354555580       -2.24669314373621       -0.99700570991498
C           56.99426869013777       -3.18394337810264       -1.19980976133455
C           55.75497744823986       -2.60643465303583       -0.77155093966664
N           55.95143772915460       -1.30744523866055       -0.36764047876061
C           54.55293231866852       -3.29785715803365       -0.70645969520264
C           54.54700704533119       -4.74150207102065       -1.03456188220089
C           53.76963624845556       -5.22644906851376       -2.08891430257219
C           53.76621053110789       -6.57451745169452       -2.39908960733176
C           54.53837451667660       -7.46801959951669       -1.65075713977093
C           54.53395744569004       -8.85671080494041       -1.96436631426699
N           54.53065676792015       -9.97926147784316       -2.21725301300493
C           55.31499960033209       -6.98809204680912       -0.59196686056521
C           55.31990117178123       -5.63772173729449       -0.29236175135429
C           53.35407674237275       -2.69167343226342       -0.34223620011016
C           52.10575157020851       -3.38591820702785       -0.20820112873171
C           51.15901907476356       -2.44672881040155        0.02695214463373
C           51.83104998008177       -1.18240050933015        0.04611820837150
N           53.17906846905888       -1.35116002110920       -0.13474063025559
H           50.09981911393234        0.03122183410434        0.15520800562694
H           50.08502766126864        2.63997334500205        0.10200702638069
H           51.98211746707091        4.53208411871241        0.41084597601952
H           53.26826516082418        4.68075937673522        2.72653170503871
H           53.27855075636302        7.10115508449483        3.21023442504486
H           55.92020207619294        7.74837544761967       -0.10968870833055
H           55.89955607491025        5.32742882065853       -0.59326362802407
H           57.15026223618936        4.28090763999605        1.55861403167719
H           59.03660836103688        2.40084970577585        1.15920840168892
H           59.00828723082454       -2.31244629195583       -1.19896341615208
H           57.10676171770154       -4.17529148104738       -1.60752312611361
H           53.17850528424488       -4.53500323597373       -2.67864373795899
H           53.16639828206150       -6.94274596027248       -3.22312473658804
H           55.91162439155316       -7.67841017919769       -0.00724285530786
H           55.91440762239487       -5.27027869354783        0.53644736133200
H           51.98288362027537       -4.45419822437987       -0.28322072397375
H           50.09872964837849       -2.57847157520139        0.17281056489340
Fe          87.12267145765101        0.01037511807398        0.10767083787852
C           90.51079178822822        0.03155804926989        0.28835253758894
C           89.86211809859222       -1.16447925840154        0.51398330724348
C           90.54600035637047       -2.38925305074561        0.80114967473121
C           89.59680451523370       -3.34871999164579        0.90038561338760
C           88.33238091913452       -2.70452690725845        0.68854945463243
N           88.50845903019079       -1.36823093561791        0.45208230098262
C           87.11404220960642       -3.37464850087179        0.68322785391571
C           87.11042731862324       -4.83539076133140        0.93746891547593
C           87.51500566008708       -5.33572668980786        2.17685843759258
C           87.50681800662615       -6.69701905693392        2.42284354411214
C           87.09692411550805       -7.58660816692869        1.42536527890859
C           87.08711841718025       -8.98817691565801        1.67533380489547
N           87.07666554457103      -10.12052512492444        1.87984188431204
C           86.69488280323090       -7.09017327908292        0.18190578782385
C           86.69972417467505       -5.72708856518304       -0.05526020660073
C           85.90006623842868       -2.73784180613140        0.47029864184626
C           84.63302077345070       -3.40576584870806        0.51700663413046
C           83.68407736554843       -2.45515925117374        0.34560384028041
N           85.72214788019079       -1.39009662956842        0.26626442696512
C           84.37220001397172       -1.21073726434235        0.19639621307378
C           83.71099219703589        0.01366051321858        0.05327102283215
C           84.38008561687782        1.23212353308501       -0.10296585325497
C           83.69944915095192        2.46984690420714       -0.32556544407615
C           84.65460791492654        3.40534482353379       -0.54011882555300
C           85.91824948687609        2.73882097079404       -0.42827754322407
N           85.73178828196544        1.40372377897980       -0.15911709346370
C           87.14133148154561        3.36732931261300       -0.61150973635229
C           87.15509955273980        4.81069583635204       -0.95066970632285
C           87.64399103378834        5.23617653088709       -2.18758037290641
C           87.65670732994334        6.58027449784833       -2.51460327209404
C           87.18452314616624        7.52777890748718       -1.60153463541470
C           87.19877183904813        8.91208099862075       -1.93388955274945
N           87.20857498908920       10.03059595069536       -2.20388036738515
C           86.69936923256587        7.10652708578018       -0.36000475852774
C           86.68366633272494        5.76008176821265       -0.04197128909103
C           88.35963668391776        2.71079619075432       -0.47712466688286
C           89.63222094353071        3.36552783601735       -0.58065492538357
C           90.57465469226112        2.43414807627772       -0.30542805018414
C           89.87746644886516        1.21230001149019       -0.03836889051796
N           88.52373302704922        1.39233147933321       -0.15001549308784
H           91.59284765533822        0.04002571261576        0.35570902678576
H           91.61581235807225       -2.48417191720757        0.89768505703562
H           89.72894680929487       -4.40168130244852        1.08889746427845
H           87.82278194934665       -4.64749081338271        2.95588792885882
H           87.81629204042314       -7.07835298662844        3.38887406320765
H           86.38000360848768       -7.77749651187087       -0.59449855050383
H           86.39621509141789       -5.34551869671816       -1.02352468583242
H           84.49652213880758       -4.46262289084780        0.67792949777458
H           82.61239661994315       -2.57063674126435        0.33048685053183
H           82.62811029314935        2.58935861910737       -0.33361638156692
H           84.52441342196542        4.45146082392829       -0.76399053240631
H           88.00265847977276        4.50258357750231       -2.90066881181041
H           88.03162611445380        6.90339519959339       -3.47867205768849
H           86.33705486363741        7.83898093606155        0.35177265826510
H           86.31736158417122        5.43751398207404        0.92602582587436
H           89.77177934943380        4.40790220162271       -0.81684566923535
H           91.64694052211657        2.54504636005280       -0.27795773148170
C           59.37742171095554        0.03584442884487       -0.00718012627781
C           60.59688884840214        0.03267162296717       -0.01860556575367
C           70.22171289029404        0.01883550870331       -0.01985584015649
C           71.44176323114441        0.01833197994591       -0.01849580961202
C           81.08731089533768        0.02143600735311        0.03310125372326
C           82.30540475514135        0.01716104703669        0.04402719888811
Fe          65.41031836574744        0.02963293899336       -0.03565004626740
C           61.99884142565286        0.03199020523129       -0.02785619232129
C           62.67439464716867       -1.18229019148932       -0.21600019765655
C           62.01920175742316       -2.44431827236391       -0.35021357141054
C           62.97353714912203       -3.34408972710458       -0.69533327391490
C           64.20824290736637       -2.62371137835231       -0.77264054254004
N           64.01648522357178       -1.31184531182711       -0.41794146647107
C           65.40428113817153       -3.16192704849823       -1.23649626340944
C           65.39601779313791       -4.54158568751494       -1.77114216920684
C           64.58345946339684       -4.87151604908049       -2.85867195380190
C           64.57811259475024       -6.15700901935434       -3.36899199351750
C           65.38298616726824       -7.14357622633529       -2.79146434512240
C           65.37574206896137       -8.46850197805181       -3.31268091679338
N           65.37039310933270       -9.53551495580173       -3.74320923567638
C           66.19283674021965       -6.81993148908326       -1.69890404020463
C           66.20010635666821       -5.53019682141815       -1.19895837453807
C           66.60478415016067       -2.46182147684334       -1.22080211835077
C           67.84238264498087       -2.96389858286140       -1.73752566485758
C           68.80153884803104       -2.07225585011105       -1.38549300580876
N           66.80136289487687       -1.24366258907637       -0.61731011716251
C           68.14525771361465       -1.02674689428477       -0.66627029954476
C           68.82096186590780        0.02064979997918       -0.02281755350928
C           68.14538871432795        1.07282219466711        0.61296584626953
C           68.80168244112944        2.11879697758928        1.33159641757634
C           67.84542656447908        3.02003487534927        1.66669621306712
C           66.60944467632970        2.52223509492843        1.14210412783308
N           66.80339111351242        1.29820497341906        0.54991297481004
C           65.41272308608789        3.22905226943506        1.14449779718174
C           65.40863623205712        4.61334666184008        1.66691016961119
C           64.59145517392302        4.95706926729947        2.74670649154040
C           64.58834509276723        6.24745630979803        3.24449871175928
C           65.40051860405873        7.22511919075376        2.66210219202079
C           65.39508517206646        8.55524385331822        3.16994838981024
N           65.38997183406282        9.62738267351312        3.58762373910645
C           66.21596886498439        6.88737889552212        1.57799050877063
C           66.22083064829717        5.59285329898076        1.09053881092377
C           64.21563263923974        2.69127068485679        0.68300746152397
C           62.98222841829723        3.41349242158894        0.60218796249900
C           62.02432478644242        2.51146396540268        0.27311893942410
C           62.67657799144257        1.24697223595984        0.14903809440835
N           64.01976692777127        1.37618418924765        0.34235282713563
H           60.96552656295464       -2.60985442006604       -0.19647522882937
H           62.86031259461866       -4.40059217963086       -0.87579907024701
H           63.96699341884144       -4.10584926002545       -3.31587992873224
H           63.95150276966321       -6.40385786631205       -4.21796231410434
H           66.81387951232576       -7.58354989553329       -1.24556117061711
H           66.82010506254899       -5.28543996507138       -0.34397874488088
H           67.95444457334300       -3.87704916827030       -2.29891590412167
H           69.85869156859025       -2.10700989938968       -1.59267847615522
H           69.85683608806825        2.14734283848522        1.54957205396394
H           67.95808054200056        3.93688878280391        2.22190324761632
H           63.96939747349455        4.19835429540211        3.20791079499880
H           63.95774697853408        6.50499481338540        4.08731572098281
H           66.84308641195108        7.64396197437811        1.12122473869689
H           66.84519612161787        5.33720644617248        0.24194366416815
H           62.87199878929138        4.47234369462214        0.77029478244045
H           60.97039892249188        2.67750798166513        0.12180488024014
Fe          76.26388584639136        0.02983474238359       -0.02036006408322
C           72.84301643596099        0.02162412358666       -0.02050335673587
C           73.51827126658455       -1.17844294723918       -0.28304866049400
C           72.85004104644995       -2.42228847691673       -0.50190849628464
C           73.80736670861911       -3.32603653288385       -0.82339603759243
C           75.05665610740743       -2.62617429957972       -0.80241037161368
N           74.86574190303779       -1.31825087354311       -0.42810137801141
C           76.27077375475282       -3.19683997096657       -1.16167060050226
C           76.27085003731402       -4.58802052473513       -1.66974459228967
C           75.57678741152429       -4.91093731965730       -2.83804650270971
C           75.57919225726886       -6.20647986887031       -3.32273263648839
C           76.27291423174520       -7.20904526977600       -2.63865510487014
C           76.27600693785772       -8.54422297964122       -3.13312108693644
N           76.28141755837272       -9.62280953169367       -3.53379275088509
C           76.96414850059048       -6.89161592386556       -1.46571205027653
C           76.96437868457004       -5.59234363611680       -0.99083319603627
C           77.48544547988671       -2.52748937865206       -1.06593438065139
C           78.74137439636065       -3.08886981258360       -1.46361812349656
C           79.69575576903360       -2.19142525515731       -1.11634803304860
N           77.66834310278541       -1.27828558041589       -0.52713162652966
C           79.01778564952572       -1.08269419587213       -0.52263203474001
C           79.68277605934989        0.02504265802577        0.01601904094090
C           79.00977632266692        1.13940968527478        0.52993960116733
C           79.67883371922478        2.25651515508319        1.11824724204347
C           78.72095655436294        3.16564235488888        1.42288508082280
C           77.47172492771620        2.60032299846619        1.01004273472287
N           77.66134192514086        1.34079151832244        0.49887124972403
C           76.25573971165990        3.27056939494870        1.07978283413423
C           76.24986323813771        4.67008311122194        1.56485125058279
C           75.55200326439959        5.00978045599929        2.72610523120260
C           75.54788798447464        6.31335065846750        3.18862495163569
C           76.23888418413821        7.30704568969586        2.48894034763410
C           76.23449335906707        8.64995331924549        2.96204364233336
N           76.22916686179862        9.73352329063005        3.34909206180051
C           76.93459262175210        6.97249516013026        1.32349068070734
C           76.94161354522198        5.66520199436552        0.87097940212770
C           75.04490657609023        2.69056828004920        0.72517167213283
C           73.79203593836245        3.38422117516750        0.73944670250000
C           72.83820506037371        2.47013811521634        0.43757999159016
C           73.51244466093041        1.22703025601975        0.23331659566334
N           74.85954737669501        1.37603058272579        0.37101425976041
H           71.78660620705831       -2.57335985354322       -0.41323633545650
H           73.68823367591732       -4.37369093906765       -1.04629869266835
H           75.04708366740336       -4.13302428292915       -3.37616356255662
H           75.04485135063980       -6.44851372124018       -4.23389691562209
H           77.49907611129578       -7.66749085197788       -0.93075421615029
H           77.49243238809701       -5.35147780250699       -0.07520077706115
H           78.86810908465500       -4.04223282262188       -1.94981225593215
H           80.76297373036796       -2.25895036488205       -1.25199230857117
H           80.74307985962551        2.32229196682696        1.27648616488821
H           78.84048145162789        4.12926713230865        1.89036294403274
H           75.02439158773637        4.23889965760607        3.27624914045237
H           75.01053918712917        6.56870982413761        4.09436524263977
H           77.46773585576790        7.74127541179271        0.77664129969439
H           77.47373622992652        5.41060117277267       -0.03856135591305
H           73.66809430242103        4.43458675654889        0.94634159483252
H           71.77363655363600        2.61418637650579        0.35104863721911
