181
 energy: -300.100371743988 gnorm: 0.000469929380 xtb: 6.5.1 (b24c23e)
Zn          27.81154405581705        0.42316707560294        0.26776527842034
C           24.40583904701378        0.29433237824409        0.14847203801914
C           25.07157381831047       -0.92578241895407        0.14059462942174
C           24.43499255404851       -2.21267079480765        0.11080959180957
C           25.42176802068009       -3.14379907387564        0.10806443597241
C           26.67491711316949       -2.43675217714214        0.12790769953650
N           26.42619199081182       -1.09504241853163        0.15707803605321
C           27.94319339340251       -3.02941628827194        0.14127721100200
C           28.00612867633859       -4.51029995879613        0.05711168929552
C           27.54201926248920       -5.17275851449877       -1.01282935595668
C           27.58471438211926       -6.67536399794319       -1.11567122896335
N           28.51944768441549       -7.24570591848399       -0.14177032519484
C           28.80636642063781       -6.57518790597432        1.02003650281300
C           28.60972317647641       -5.25206372031962        1.15546616990757
C           29.16044376700851       -2.34345641681106        0.22091551314694
C           30.45953568376277       -2.95668142366565        0.20464621525671
C           31.37557964069053       -1.95804014971506        0.28288989313800
N           29.31249513238449       -0.98463639562063        0.29715399913899
C           30.64731727657379       -0.72441476501419        0.33709980813330
C           31.23920186058671        0.55197079981340        0.40492067069685
C           30.55093115244055        1.78042255893144        0.41577666714071
C           31.17853980555288        3.06584273958109        0.50885485603233
C           30.18740010017075        3.99338694130917        0.49420240913855
C           28.94298203370625        3.28353992677684        0.38498501968844
N           29.20141959797698        1.93951587281835        0.34570757368965
C           27.67548808247639        3.87665407897179        0.35508258126198
C           27.62282049376264        5.35980602117917        0.39228034722086
C           27.02708887568274        6.02115516843073        1.39557493330645
C           26.94604241355512        7.52523120309048        1.43798330817326
N           27.90592673398156        8.13393108435322        0.51293179977572
C           28.33630449394752        7.44628419220340       -0.59321484103610
C           28.25425495491469        6.10761497831569       -0.68635407514904
C           26.45712167156999        3.18984106316629        0.29062975178167
C           25.15589702602377        3.79945539737460        0.21253197172916
C           24.24427677137549        2.79602589657200        0.16062608870534
C           24.97626246587199        1.56107366107331        0.19358262051481
N           26.31220527755054        1.83269979390439        0.26775021710164
H           23.32146244656953        0.25363697304875        0.11113140828922
H           23.36785920175181       -2.37185133446670        0.10093052320637
H           25.31543616782716       -4.21687436754991        0.10571953313735
H           27.09617250244925       -4.65605060167959       -1.85481588016639
H           27.91534247150954       -6.97659152676738       -2.11882605070948
H           26.57354832145974       -7.09827271951325       -0.96458580653910
H           28.47147819588190       -8.25212109540666       -0.07374993906290
H           29.28242697898553       -7.17806274377518        1.78686957381991
H           28.88888703898621       -4.73055387153020        2.06004796184184
H           30.64531309397718       -4.01644470938582        0.13502224330291
H           32.45077713697618       -2.04121482719975        0.29474188394926
H           32.24213105346389        3.22910206207056        0.58204613931359
H           30.28712170981966        5.06497423940348        0.55964579522086
H           26.55604010854830        5.50150608460480        2.22187182799427
H           27.17353325743047        7.88830367576210        2.44933144505218
H           25.91981935571307        7.85957959751875        1.19448369102791
H           27.78304220385142        9.12955970381228        0.39693868674554
H           28.82393899314230        8.05693722552306       -1.34651423819018
H           28.64509455667579        5.57740899175441       -1.54329015441135
H           24.96864249517776        4.86109755018217        0.18873518335776
H           23.17003886835134        2.87375150898239        0.09593865166446
Zn          54.75938812601441        0.32237066909414        0.24838899378740
C           58.16631755224708        0.34967386807573        0.10896157429095
C           57.54608765520886        1.57652169177127        0.31429064820579
C           58.22973917883949        2.82567648328974        0.50007050793913
C           57.27806319980175        3.77835320792587        0.66561577933867
C           55.99963339696642        3.12458566382835        0.57113783573857
N           56.19874976546831        1.78930146124015        0.36970917476811
C           54.75354978983565        3.75250627358660        0.68351712341648
C           54.74309233433849        5.22543125837466        0.86886138712753
C           55.24163351048649        6.05743489790219       -0.05741905694051
C           55.25561000759419        7.55348140019058        0.12200501978361
N           54.33629147958481        7.96826034870005        1.18523763616771
C           54.01117931917408        7.10355946266657        2.19922833236984
C           54.15514009196556        5.77181052619899        2.08419413430398
C           53.51185066210626        3.10864275978915        0.63617969416749
C           52.23588897860901        3.76526152898429        0.70492908196981
C           51.28377576885361        2.80188327777549        0.61566350703856
N           53.31050251322032        1.76179756071273        0.49434834531370
C           51.96680424111010        1.54816133897645        0.48518882228601
C           51.33010192604208        0.29604212108201        0.38248011762655
C           51.97447086162007       -0.94667089812263        0.23182901689272
C           51.30233714241808       -2.21038228589895        0.15275777649811
C           52.25921240155094       -3.15921270123080       -0.01188682513181
C           53.52681488764595       -2.48338973340920       -0.04197171819775
N           53.31671228186691       -1.14003213124409        0.11856021704445
C           54.77113524655944       -3.10726848490847       -0.18983333194374
C           54.77135015482077       -4.57960215127292       -0.37967545130644
C           55.36482435938956       -5.40518069440594        0.49508186760369
C           55.39519802299772       -6.89973781570580        0.30540166541208
N           54.39674784900106       -7.32986929108667       -0.67732724163281
C           53.96724821016429       -6.46748643456091       -1.65386227307673
C           54.09221591190075       -5.13351694991897       -1.54303833233044
C           56.01224379545182       -2.45924359146332       -0.17735607166131
C           57.28908412609682       -3.09221501812996       -0.37757583526937
C           58.23586149288757       -2.12457590683289       -0.28883249437447
C           57.55008086475775       -0.88658298575408       -0.04567543365039
N           56.20619005167178       -1.12101563866539        0.00942708833645
H           59.25114032842104        0.35792856666224        0.06412708307217
H           59.30198973697437        2.94561591921941        0.50945883344776
H           57.42410834143183        4.83123792185539        0.84692510424973
H           55.67725400425939        5.69018560921158       -0.97940443682051
H           54.94399173360551        8.04903834460786       -0.80739677749689
H           56.28092862927402        7.90158965473201        0.34942312162664
H           54.42429300848855        8.94098017301102        1.44196614320586
H           53.55078379316276        7.57032962638224        3.06427504610770
H           53.84545386758952        5.10130522001381        2.87332448641926
H           52.08964850206668        4.82910836117107        0.80161539690610
H           50.21219278102330        2.92249361698021        0.63164442682494
H           50.23447573471107       -2.34611895954990        0.22012500465117
H           52.12194077056690       -4.22510902406735       -0.09906048009743
H           55.87108046722794       -5.03331500055251        1.37831560151806
H           55.17599806880413       -7.40648562834815        1.25490691526423
H           56.40432978746146       -7.22393766459504       -0.01198321205407
H           54.48460405528451       -8.29880397721673       -0.94805028396070
H           53.44422062678870       -6.94006033346833       -2.47923841489193
H           53.70207615222485       -4.46653031138925       -2.29877280877536
H           57.43728801467909       -4.14232353029428       -0.57256737384627
H           59.30549923811815       -2.22726113000749       -0.38645019945357
C           33.86656220012949        0.62116842053771        0.49830455884727
C           32.64594730324352        0.59867581955767        0.45847389769213
C           35.21768613256649        0.63634461311230        0.53405939406403
C           36.43900036465713        0.63640236366904        0.55860509992988
C           47.35008719279766        0.34493551481342        0.49796624056656
C           46.12966763489509        0.38745748517862        0.52396646063166
C           48.70132667369327        0.31381060651935        0.46582152767165
C           49.92199873428870        0.29345293467169        0.43062902555911
Zn          41.28503044921050        0.54578444735737        0.56963823791823
C           37.84685215196306        0.62172435908207        0.57170328009002
C           38.50658630800820        1.40892760112442       -0.39237736682715
C           37.84733690528996        2.24826128214628       -1.34874889141333
C           38.81605038051138        2.82286229596124       -2.10706181302233
C           40.07719097515635        2.33230758778601       -1.62580717535419
N           39.85245201969103        1.48360895635567       -0.57491602786748
C           41.33002083063361        2.67944168167624       -2.14166890128017
C           41.35408008587439        3.58386738791876       -3.31918540095135
C           40.82049764210372        3.21864848912025       -4.49432717731764
C           40.87974833372319        4.09624721305739       -5.71693755023723
N           41.20016265949803        5.48063625146284       -5.35936202098841
C           41.88704161961773        5.76381026700884       -4.20707845130831
C           41.97036243434874        4.89562130731115       -3.18362777534798
C           42.56622482282913        2.24354412283250       -1.65258966635869
C           43.84365341172600        2.57169246561827       -2.22059145654739
C           44.78768460290108        1.94618357775614       -1.47132179649072
N           42.75626225734314        1.41713995101520       -0.57779234609685
C           44.09640957118331        1.22440931113981       -0.44402443446076
C           44.72228354000980        0.43768760969741        0.54232767553914
C           44.06440692980484       -0.30142009089716        1.54456562415538
C           44.72703330917954       -1.05347170629905        2.56852411766076
C           43.75918669863349       -1.61034223594262        3.34123159249502
C           42.49439531700570       -1.21426731122842        2.78767639572852
N           42.71736924830637       -0.40941469176491        1.70252057477344
C           41.24013741419095       -1.58192644494118        3.28737374557147
C           41.21294563856834       -2.49053748108738        4.46132999055680
C           41.71455760407059       -3.73301825041911        4.40576859725857
C           41.71108531681971       -4.66105239462541        5.59271852239813
N           40.77757715388100       -4.19973408968021        6.62408598431659
C           40.44739248209257       -2.87189606158152        6.71972657244686
C           40.60431578220238       -2.01473859740262        5.69595549429214
C           40.00374631989487       -1.16867368984242        2.77871624429055
C           38.72293528428536       -1.59719882024200        3.26721650429896
C           37.77897667582047       -0.98790788079716        2.50507327217652
C           38.47284648913224       -0.18581081739574        1.54096347197654
N           39.81470688022685       -0.31626229906342        1.72420628328295
H           36.77944390306077        2.38064300429356       -1.42100981674941
H           38.69100598994213        3.52488638323414       -2.91567134188841
H           40.38076923025695        2.23883601332321       -4.64045731032473
H           41.62785811386009        3.70563481924967       -6.43245864224597
H           39.90887141299254        4.09439660039671       -6.23089764983425
H           41.39797449343147        6.07182855638904       -6.15372168455174
H           42.28395552003961        6.77257055382797       -4.15242086902295
H           42.44960942202155        5.16635181357953       -2.25348678896098
H           43.99633476352251        3.19354596435819       -3.08826790995000
H           45.85828929832903        1.96237483612938       -1.60069214645711
H           45.79665102353064       -1.13230690106861        2.68217598997714
H           43.88953070833762       -2.22599726921031        4.21660025712220
H           42.16590511152917       -4.12643841991654        3.50235715333635
H           42.73043857629989       -4.74594592508208        6.01418021057378
H           41.40328116396125       -5.66919281667748        5.28383510744677
H           40.85580956767325       -4.70176618798051        7.49680770880069
H           39.97242373793528       -2.58810096020194        7.65352022810910
H           40.29052697513124       -0.98320979553212        5.77115040539527
H           38.56814066296578       -2.28327731891357        4.08441293907276
H           36.70640067546509       -1.07198786112843        2.58017738753805
