314
 energy: -556.279366228572 gnorm: 0.000393045538 xtb: 6.5.1 (b24c23e)
C           19.52299393820757       -0.35092066691041       -0.18035126382416
C           20.33858553384863       -1.47295621292701       -0.20617154397257
C           19.90941335215542       -2.83052840327782       -0.31340654221832
C           21.01616126793117       -3.62758898634596       -0.30683505032900
C           22.16428699437220       -2.78756416568007       -0.19518763739091
N           21.70339524174867       -1.49962898662678       -0.13616532496479
C           23.49316675270885       -3.18265905245887       -0.16082578266182
C           24.59883399762447       -2.33921481224576       -0.06532005000934
C           25.98556291653069       -2.71454480664195       -0.07242744774055
C           26.63723591471053       -1.54269324842245        0.02210281526731
N           24.50889081267031       -0.98487041074983        0.03672297929747
C           25.75938309201101       -0.40839074967927        0.09853356742885
C           25.99059264188388        0.90566205554250        0.21274832775905
C           25.26533141382331        2.06029512385849        0.27903676249277
C           25.69205884901415        3.41141486145358        0.42773320533000
C           24.58289692860125        4.21226097672633        0.42704534302231
C           23.43808650898378        3.37810502534173        0.28052330838209
N           23.89101280780404        2.09882604561166        0.19255834956190
C           22.09014083722326        3.72378615950132        0.23293462307784
C           21.03778367174769        2.82649228929483        0.10813943146081
C           19.63762603795859        3.21637353831225        0.06132645305037
C           18.92803901318447        2.07627793855671       -0.05451562463480
C           19.89475260870038        0.98746694788570       -0.07708122501009
N           21.15021837347348        1.47518956435295        0.02022544521485
H           18.45803670985448       -0.55053067149027       -0.24851338100484
H           18.87823261287942       -3.13815715314055       -0.38614478420587
H           21.05308956726806       -4.70340148494175       -0.37316276556880
H           22.29745895189210       -0.68230136915084       -0.05458145929981
H           23.68385611243808       -4.24819321195852       -0.22632245075990
H           26.38892312119269       -3.70995524284176       -0.14226330888962
H           28.42842852116252       -1.38947070911895        0.03219224018846
H           26.72250767233940        3.71459456930577        0.52099831434279
H           24.54971044777269        5.28615353863731        0.52090067714707
H           23.28532882775749        1.29169780636228        0.09032947153816
H           21.85073515620308        4.77903043792204        0.30451483886909
H           19.28158690708629        4.23349159345519        0.11244432269678
H           17.85856999436454        1.94899686643315       -0.11916848398021
C          157.32330472838746        0.34697964270243       -0.19864988971615
C          156.49689474601175        1.44745882859134       -0.37416224617332
C          156.91348327959051        2.78449657233592       -0.65248823404333
C          155.79890164473588        3.56375342742813       -0.75593237961497
C          154.65825588629562        2.73272101553417       -0.54465078077063
N          155.13136116973138        1.46816183223813       -0.31719992366345
C          153.32532459457514        3.11466542211995       -0.57025417813624
C          152.22712447545197        2.27888606035291       -0.37416252085334
C          150.83690120531475        2.63535089954562       -0.43843881227933
C          150.19561179587879        1.47868945971127       -0.19804596720212
N          152.32935032375806        0.95000192951229       -0.09794862629058
C          151.08396766456991        0.37307086608622        0.02969216425320
C          150.86559605307417       -0.91771944666462        0.31097050559925
C          151.60141890323507       -2.04637212617779        0.53066399695614
C          151.18687477539720       -3.37146556267338        0.84998541091068
C          152.30385323065090       -4.15370573854710        0.95994149472141
C          153.44149924435348       -3.33321995522981        0.71419536570849
N          152.97668818959733       -2.08094324628993        0.45874785389348
C          154.79309826024641       -3.66768742976627        0.72028018909877
C          155.83757712599345       -2.78280961900744        0.48742319394107
C          157.24180848229616       -3.16044529388182        0.50031952502600
C          157.94107380444493       -2.03726213072508        0.24292994519096
C          156.96394412215793       -0.97087802620843        0.07386389269198
N          155.71259607273686       -1.45541543656370        0.22514984830824
H          158.38674597976410        0.54763411409400       -0.28500182833605
H          157.94212768158511        3.09133623269754       -0.75738591699801
H          155.75190252521537        4.62162520893981       -0.96046415043015
H          154.54479559501831        0.66174926459639       -0.13493040698978
H          153.12483425661651        4.16082150669403       -0.77368114644602
H          150.42454999531392        3.60919862578057       -0.63849940412282
H          148.39832081547513        1.32283552281440       -0.17518591937038
H          150.15877689251232       -3.67114351287238        0.97505724015366
H          152.34686516230684       -5.20605367296085        1.19203776055813
H          153.57517269464256       -1.28730300246263        0.25697844053189
H          155.04225411860713       -4.70224449442474        0.92907530292910
H          157.60740142091876       -4.15860309471868        0.68452256040382
H          159.00971710852073       -1.90793184701862        0.16929218084082
C           29.50391525798417       -1.27197600789543        0.02995290850759
C           30.70773356360925       -1.13139296932316        0.02557034446502
C           32.05389021917907       -0.98158621222654        0.01931769903487
C           33.27344261199701       -0.84953114267629        0.01310548977369
C           34.60714358171708       -0.71408239644259        0.00588403942927
C           35.83258822344665       -0.59760386800996        0.00023464585303
C           37.16548408270462       -0.48460882610106       -0.00632861300579
C           38.39263035749858       -0.39167797154564       -0.01297018490979
C           39.73237439961407       -0.30788242221849       -0.01854691305883
C           40.95543947732074       -0.24425571947623       -0.02269282842024
C           50.73645443969538        0.06216491968693       -0.01391029531911
C           51.96177119100487        0.08504922400282       -0.01037997630970
C           53.30209451784362        0.10704875146886       -0.00360811781431
C           54.53432502232027        0.11551923622017       -0.00213828561185
C           55.86871466613931        0.11819647324864        0.00012625237075
C           57.10261559111921        0.11391651320230        0.00328239443436
C           58.43697856796695        0.10677299872468        0.00487897207433
C           59.66919917248375        0.09614202390869        0.00534410689675
C           61.00963607975374        0.08485755398298        0.00509554573662
C           62.23511530516372        0.07110564790790        0.00413097114012
C           72.01782665210449       -0.02608028224229       -0.00684816180565
C           73.24336907487842       -0.03313009227166       -0.00694424332055
C           74.58378764648710       -0.03661529182389       -0.00622912647522
C           75.81605288554978       -0.03804162662995       -0.00585249028903
C           77.15036507306563       -0.03707371939115       -0.00586497314435
C           78.38427773135166       -0.03450522347637       -0.00429639135928
C           79.71857941907788       -0.03013045611255       -0.00275038622230
C           80.95083467701424       -0.02566271478106       -0.00217792689708
C           82.29122805022143       -0.01812985275805       -0.00157456317563
C           83.51676989649681       -0.01253370204224       -0.00106362506452
C           93.29940348098830        0.02456034388107       -0.00335199819326
C           94.52496189458297        0.02939256992054       -0.00390263049030
C           95.86538617965192        0.03561893118100       -0.00427854643107
C           97.09764063688036        0.03917852915979       -0.00454444455675
C           98.43195436072146        0.04155379647086       -0.00459468700886
C           99.66587790388506        0.04214342224145       -0.00432290120754
C          101.00020448705504        0.03999686887956       -0.00419034540911
C          102.23247442779731        0.03642462940171       -0.00329243734375
C          103.57290359791757        0.03150210158294       -0.00224909449596
C          104.79843811381119        0.02273296810866       -0.00124000213094
C          114.58205955755081       -0.08030447681316        0.00809666730526
C          115.80756537972590       -0.09300447108153        0.00816066957538
C          117.14805128940111       -0.10240087385951        0.00773109130002
C          118.38030437899675       -0.11051236380540        0.00680915670719
C          119.71471581561546       -0.11459122675354        0.00522458361834
C          120.94863834641487       -0.11474006282099        0.00305537169017
C          122.28304695284437       -0.10770076529506       -0.00014666523863
C          123.51526314844801       -0.09607268354724       -0.00391990779550
C          124.85559401691741       -0.07162043961562       -0.00818671347022
C          126.08086392728775       -0.04575365363185       -0.01295894822181
C          135.86295105308753        0.27158589777750       -0.06754602378473
C          137.08611622463664        0.33337735075349       -0.07631566616845
C          138.42613460158839        0.41290946842598       -0.08696167518309
C          139.65373963392523        0.49938047217035       -0.09566953555218
C          140.98736899566651        0.60361578643897       -0.10614671837333
C          142.21373547098207        0.70986565308586       -0.11558169841040
C          143.54868740955391        0.83238623658572       -0.12852561521646
C          144.76947902130732        0.95215046315429       -0.14023358233082
C          146.11712139583551        1.08782965848053       -0.15366286533304
C          147.32249807233688        1.21409429993059       -0.16452260775074
C           42.35772149642730       -0.19068501169997       -0.02543254671567
C           42.95479335672913        1.08424825966488       -0.04547940658718
C           42.29737182874348        2.34291498790064       -0.06597990993015
C           43.25787846380642        3.31744035083323       -0.08152235758238
C           44.52882952136379        2.67959866214211       -0.07058828407632
N           44.29402663190282        1.33212981390863       -0.04909780436194
C           45.77415867776733        3.29866503796250       -0.07898714759289
C           47.02377498128937        2.69839630269400       -0.06672075313236
C           48.26702769140169        3.44907366198967       -0.07554933623611
C           49.26243773287588        2.53851914996209       -0.05787313184241
N           47.28261515969378        1.36235878591501       -0.04447312185293
C           48.62292455744209        1.23567526070553       -0.03869469926401
C           49.33506345082274        0.01821891986849       -0.01756300443519
C           48.73692719154803       -1.25711038972924       -0.00049335259456
C           49.39460665426792       -2.51561359706115        0.01939726476034
C           48.43434174755733       -3.49042205724400        0.03044507965916
C           47.16349848293872       -2.85273243968084        0.01781818601815
N           47.39808344432306       -1.50494435907412       -0.00076604991106
C           45.91849311336325       -3.47173830576559        0.02379028862099
C           44.66906290838410       -2.87087031499957        0.01345635016550
C           43.42599276528140       -3.62157554224395        0.02313107691667
C           42.43067582601365       -2.71100137421653        0.01017030419659
C           43.07001934314542       -1.40792468692602       -0.00785006728687
N           44.41069538570434       -1.53497887676100       -0.00554659530816
H           41.22715464429533        2.47378277316396       -0.06849167486127
H           43.10971550401575        4.38539040104422       -0.09886783718663
H           45.01123202624079        0.61443472148922       -0.03714439031088
H           45.75507079533453        4.38389105536578       -0.09658528991911
H           48.33498055447480        4.52549934268815       -0.09279725655629
H           50.32851918083576        2.70129632031959       -0.05749080589701
H           50.46475750829388       -2.64671013006190        0.02435194434090
H           48.58272008298734       -4.55835449709081        0.04608352971166
H           46.68076531707492       -0.78736585483327       -0.01303885311256
H           45.93729305646706       -4.55698190014655        0.03912315928893
H           43.35810998719156       -4.69802470507391        0.03806925984109
H           41.36477885264456       -2.87451141568135        0.01194529979242
C           63.63708196079737        0.06067478563347        0.00250386972697
C           64.28681273954449        1.31047242899168       -0.01402801437199
C           63.68110734104332        2.59473053995414       -0.02913813302925
C           64.68048400779517        3.52952986860472       -0.04258866274719
C           65.92411596352024        2.84040239018937       -0.03600977140340
N           65.63473583207961        1.50336628351495       -0.01866956078244
C           67.19366320381195        3.40801652588640       -0.04526211719741
C           68.41724243729421        2.75659423432448       -0.03883629850847
C           69.69034030718629        3.45510440048373       -0.04932362894161
C           70.64713636022024        2.50399381603570       -0.03831939910091
N           68.62041708300161        1.41073901156256       -0.02205032380409
C           69.95423020930599        1.22867410558130       -0.02130570897766
C           70.61591531077158       -0.01728957251976       -0.00628530218060
C           69.96641525580084       -1.26714114727531        0.00965374859758
C           70.57211904228568       -2.55142401989234        0.02453950710709
C           69.57272285432070       -3.48621120255397        0.03695106847619
C           68.32903434078949       -2.79708902918677        0.03007970480802
N           68.61850389025894       -1.46002619542789        0.01349043520069
C           67.05947041312805       -3.36457853774874        0.03873508441370
C           65.83578856481718       -2.71313347983932        0.03278277996369
C           64.56271123104906       -3.41169541748801        0.04334277032495
C           63.60584039366459       -2.46061127538401        0.03342356477553
C           64.29863810694452       -1.18527632572452        0.01678722945465
N           65.63255219110462       -1.36733963027700        0.01682295745737
H           62.61717255669982        2.76932944381802       -0.02953414573224
H           64.57583060162131        4.60265777162408       -0.05591266550577
H           66.32225355351049        0.75713556309430       -0.01048642981052
H           67.21914167618209        4.49315084574214       -0.05904269700531
H           69.80276667330058        4.52783409788841       -0.06312792306570
H           71.71897017487005        2.62280840547066       -0.04113487399727
H           71.63607108421648       -2.72597406965539        0.02543093752983
H           69.67738897950740       -4.55934952178987        0.04980574442304
H           67.93101031414089       -0.71377927768005        0.00526747319353
H           67.03392819996384       -4.44972601807792        0.05189026722617
H           64.45034691148987       -4.48444357995005        0.05652845873659
H           62.53399766587408       -2.57939139362078        0.03665618501172
C           84.91868693627353       -0.00301684042256       -0.00061880115780
C           85.55099000286933        1.25564142315181       -0.01936976209799
C           84.92757255766300        2.53136042313983       -0.03831080526808
C           85.91392332066251        3.47988020302443       -0.05243816881233
C           87.16699559172062        2.80807435502455       -0.04256674174667
N           86.89610512887062        1.46718221212069       -0.02257347989351
C           88.42858308520570        3.39312688311619       -0.05155334523619
C           89.66104957963444        2.75861676361313       -0.04253647484866
C           90.92446423634533        3.47449554547092       -0.05371243459413
C           91.89421472331748        2.53661169674987       -0.04020011492231
N           89.88263703403911        1.41574285023395       -0.02265117656880
C           91.21885726651320        1.25197343756636       -0.02078402956976
C           91.89747324498137        0.01526897381122       -0.00260423481861
C           91.26513067295005       -1.24337566365718        0.01659608657051
C           91.88853959242141       -2.51909940316499        0.03559325329090
C           90.90218853262728       -3.46760640505463        0.05040245031315
C           89.64912328131949       -2.79579255908421        0.04080162119938
N           89.92001432988319       -1.45490484800595        0.02039529502419
C           88.38754640036700       -3.38086034121134        0.05014872073314
C           87.15508328391653       -2.74636174269070        0.04085817911617
C           85.89166386042154       -3.46223042091605        0.05189272529283
C           84.92192737047637       -2.52434500149646        0.03767431610730
C           85.59730581909389       -1.23971630391015        0.01811226501010
N           86.93351676610182       -1.40348987223431        0.02051480445053
H           83.86131962344122        2.69119829561858       -0.04061113162142
H           85.79442418992676        4.55142364099448       -0.06834864176063
H           87.59390111258000        0.73059456030025       -0.01169929112977
H           88.43912294034571        4.47847792691202       -0.06769552001151
H           91.02217490220568        4.54863588497691       -0.06973379379254
H           92.96433667561629        2.67001356387760       -0.04265484115086
H           92.95478913947379       -2.67895667895297        0.03752187442635
H           91.02167813688185       -4.53914710557002        0.06655504789690
H           89.22221527278616       -0.71831833010665        0.00957993537568
H           88.37701646581215       -4.46620639415187        0.06660738794073
H           85.79393393053496       -4.53636387739035        0.06824520736637
H           83.85180517718376       -2.65774893612604        0.03980540770548
C          106.20035265139420        0.01283522221858        0.00022344583584
C          106.85077235327803        1.26226122661027       -0.01199638504859
C          106.24608926975350        2.54703014569343       -0.02580738277462
C          107.24623598315142        3.48105806269254       -0.03433713961018
C          108.48938230781368        2.79096521833781       -0.02596155390856
N          108.19884065185531        1.45410496248123       -0.01256423323011
C          109.75936158379614        3.35757540241208       -0.03046614765392
C          110.98267640860210        2.70545580322971       -0.02262661973034
C          112.25609002579080        3.40345818765767       -0.02867619848583
C          113.21251410092630        2.45193212328881       -0.01821517747102
N          111.18528621778293        1.35954526451312       -0.00869597092383
C          112.51912513233175        1.17687337798965       -0.00576056582402
C          113.18006840426649       -0.06945170310438        0.00743277254981
C          112.52944440422040       -1.31882795103397        0.01990246379273
C          113.13408770801288       -2.60359428409810        0.03367076053033
C          112.13393013860947       -3.53761913994169        0.04258603189755
C          110.89084135696625       -2.84750179292178        0.03444842250098
N          111.18134317073513       -1.51066969460826        0.02086439304304
C          109.62086631271725       -3.41424730212821        0.03917481436261
C          108.39762194748999       -2.76218245734452        0.03122191712641
C          107.12416507565638       -3.46012146739346        0.03717125579796
C          106.16782131285736       -2.50854754946983        0.02631639386804
C          106.86133890729784       -1.23351691879356        0.01379705601994
N          108.19507806486666       -1.41621163285308        0.01705441295617
H          105.18227833264548        2.72241524545748       -0.02871719081433
H          107.14242101559638        4.55429806675318       -0.04545292415779
H          108.88567764340245        0.70725093963193       -0.00418262395735
H          109.78560715164116        4.44273238939247       -0.04154839953780
H          112.36896273463103        4.47617889188494       -0.03952057233641
H          114.28440800713344        2.57027043864522       -0.01854333234138
H          114.19788328156173       -2.77902919318488        0.03631396189706
H          112.23769877502433       -4.61085860573708        0.05378342711344
H          110.49449378134290       -0.76382009720260        0.01255685447741
H          109.59469972677283       -4.49940021765785        0.05039357072632
H          107.01120667514060       -4.53282928579838        0.04818126547521
H          105.09592553068561       -2.62685773337850        0.02644444359220
C          127.48220236147428        0.00028591890354       -0.01957400563841
C          128.07893662316954        1.27630817063936       -0.03424110660926
C          127.42008642020193        2.53431957165298       -0.04246388934768
C          128.37944354730047        3.50999686589397       -0.05613858908820
C          129.65091434814369        2.87338139626599       -0.05672453264305
N          129.41755975961851        1.52532283116108       -0.04317489247017
C          130.89525196060080        3.49368524563816       -0.06895595132410
C          132.14553833826486        2.89443886721437       -0.07033097156585
C          133.38751483281990        3.64693630017474       -0.08425633899276
C          134.38418150595652        2.73773232191770       -0.08167089810842
N          132.40591735233863        1.55886801496879       -0.05958911914515
C          133.74679266569476        1.43369168943875       -0.06608926488746
C          134.46067742192974        0.21729793813711       -0.05896944763863
C          133.86486982735732       -1.05834433237150       -0.04347624485654
C          134.52348648416447       -2.31652015881821       -0.03524286462716
C          133.56393366517631       -3.29199145834749       -0.02042288104326
C          132.29238089372086       -2.65525413677589       -0.01924823218859
N          132.52588825454364       -1.30746422608926       -0.03342957456007
C          131.04776921534614       -3.27569588444494       -0.00642726074968
C          129.79734365728609       -2.67699674600927       -0.00550498184892
C          128.55519681856552       -3.42944159686222        0.00803450661641
C          127.55845621078728       -2.52018052950060        0.00424322863305
C          128.19604691868798       -1.21635527606936       -0.01146263420622
N          129.53653683466442       -1.34121210581165       -0.01697063739973
H          126.34981785844515        2.66449681711677       -0.03830921322756
H          128.23004843660433        4.57786569747356       -0.06514791754447
H          130.13545441123463        0.80821639846577       -0.04026595185639
H          130.87508802891216        4.57897679758769       -0.07877406617855
H          133.45380447761536        4.72354239820139       -0.09448423152032
H          135.44983333514654        2.90270035305386       -0.08928349003626
H          135.59380413482117       -2.44647397408617       -0.04014583174153
H          133.71312996364509       -4.35989711040185       -0.01109511177704
H          131.80808666216362       -0.59026425463210       -0.03619897605808
H          131.06823104069767       -4.36099619768744        0.00384868648734
H          128.48881780270881       -4.50605086442411        0.01872712528181
H          126.49262790422529       -2.68445983814871        0.01117194266756
