197
 energy: -393.623647878278 gnorm: 0.000569531565 xtb: 6.5.1 (b24c23e)
Ni          30.72937429202082        0.00986339503057       -0.00867004215809
C           27.33464190360576        0.04731868798260       -0.00652066508491
C           27.99386298375498        1.25603098293286       -0.08396413727552
C           27.32034033066554        2.51664441729063       -0.15400979089660
C           28.28071014352312        3.46988299520450       -0.15307354052921
C           29.54131338726114        2.79005725571405       -0.08510068170092
N           29.35498937214018        1.43023077392586       -0.05500204901951
C           30.76240956996529        3.44107036470404        0.02846158779705
C           30.77728629255038        4.92616317123905        0.04847085974938
C           30.39132854642457        5.64609530058979       -1.08141692175119
C           30.41117213230284        7.03613281296978       -1.06095001679633
O           30.04571076227196        7.74728934085787       -2.15508888525562
C           30.81012357675755        7.70888999197506        0.09508959457511
O           30.81699377501616        9.07914938614453        0.08638295531700
C           31.19001894481418        6.98852279930972        1.22452409906955
O           31.56425807532390        7.71801080465333        2.32228063235605
C           31.17875707014263        5.59920292614064        1.20490070665904
C           31.96850456388469        2.76334475218238        0.14059466316068
C           33.23703624907877        3.41750695291271        0.25135432541886
C           34.17890155167934        2.44462771891475        0.27597972190662
N           32.13407114335864        1.39673892210085        0.09618270148739
C           33.48576134140839        1.20088285122485        0.16650495436770
C           34.14387897945148       -0.02842641693014        0.07151673627467
C           33.46387064764840       -1.24069425199158       -0.07255758497345
C           34.13263026816005       -2.49255824471757       -0.23072045255423
C           33.16899734861997       -3.44158406251436       -0.30014892969817
C           31.91329885399935       -2.76689226000297       -0.16700675104869
N           32.10658707136464       -1.40735595925277       -0.05869542491267
C           30.68938728317584       -3.42028827883398       -0.12435213879775
C           30.67070454045220       -4.90292099472152       -0.18587049588797
C           31.28648238407787       -5.65379399975388        0.81537910950420
C           31.26612494095803       -7.04244887752034        0.75715448678868
O           31.85571376780283       -7.78185345179088        1.72781791680180
C           30.63429414539236       -7.68443000874429       -0.30913533855679
O           30.63394447745535       -9.05420382277653       -0.34239928354362
C           30.02157772553794       -6.93413577338534       -1.30946069725715
O           29.42458470096762       -7.63441958824299       -2.32468280651809
C           30.03343301338624       -5.54603789229018       -1.25019785864336
C           29.48072482712458       -2.74372794478101       -0.01822528832971
C           28.20915360576228       -3.39614953256317        0.09451412631070
C           27.27002206805609       -2.42205494479609        0.13119121499116
C           27.96848908942044       -1.17631277964244        0.04744446582385
N           29.32431467326295       -1.38016623581525       -0.01806960953177
H           26.25099541194309        0.05938578194946        0.00841257396482
H           26.24912697404706        2.63564159849827       -0.19011289054317
H           28.15988929519084        4.54051439234005       -0.18157213427265
H           30.09159461150396        5.13360066108607       -1.98631641345456
H           30.12950827461533        8.69246231347298       -1.94702976266383
H           31.11643126474319        9.38195979127600        0.95840789347781
H           31.80967343711555        7.13690379974905        3.05420312726391
H           31.46490892312732        5.04393133541239        2.09039126062164
H           33.38004073865060        4.48494447964879        0.29075103265635
H           35.24991272797659        2.54493192074666        0.34664811027134
H           35.20254883312180       -2.61261636237035       -0.28503677768511
H           33.28791018464796       -4.50437259258321       -0.43256223782744
H           31.76787582617668       -5.16610782788059        1.65311618237367
H           31.73594278097613       -8.72123190874970        1.51128416307411
H           30.15798969450504       -9.33360599173687       -1.14058710251519
H           29.03177901654929       -7.03404701219095       -2.97178546611092
H           29.56552004062363       -4.96796957065040       -2.03841347216595
H           28.06701060360213       -4.46336193011220        0.14700306984121
H           26.19864704698664       -2.51801815062581        0.20841816567888
Ni          62.72969218341450       -0.04654692725987        0.01398386133628
C           66.12476706580593       -0.08537162422161        0.01184274676083
C           65.46528310224932       -1.27847175190748       -0.19575348097550
C           66.13860911073361       -2.52416736111120       -0.40220642629103
C           65.17778964157147       -3.47054130741850       -0.51272909247099
C           63.91727845807220       -2.80118134021572       -0.37543688145510
N           64.10398173990033       -1.45360506180980       -0.19148516308486
C           62.69523809265277       -3.45946470616173       -0.34591105862824
C           62.67900466008845       -4.93693140109640       -0.49847791686452
C           63.06580160399323       -5.52144320101572       -1.70369127352159
C           63.04212117927791       -6.90435757287711       -1.84529811636748
O           63.40743430495546       -7.48432766014088       -3.01436395067614
C           62.63918190793755       -7.70601255497288       -0.77609190293271
O           62.62831091606540       -9.06598217227673       -0.94433148888464
C           62.25927212369186       -7.12100108718014        0.42900704097832
O           61.88126619325158       -7.97225755836768        1.43402198169976
C           62.27377705042444       -5.73888120504076        0.57115935462516
C           61.48879520984840       -2.79821249822061       -0.16293846589999
C           60.21963471865205       -3.45999531906391       -0.13635181237234
C           59.27813964087192       -2.49648238274461        0.00262662372312
N           61.32396628487941       -1.43597178009906       -0.04405471273641
C           59.97224127197860       -1.24919963884374        0.04664746710120
C           59.31492586100391       -0.01723892296704        0.10473015039506
C           59.99529662578839        1.20333302535392        0.10760479969659
C           59.32618099536109        2.46496434213885        0.10420258373463
C           60.28984667886571        3.41568981638123        0.14027682894053
C           61.54612582152398        2.73030444460243        0.18318317048277
N           61.35273512515324        1.36734157910419        0.13282311764292
C           62.77082468165219        3.37509045810379        0.28818444910160
C           62.78909293898246        4.85529647940718        0.39366420390215
C           62.18228643329997        5.48823360371897        1.47843011225329
C           62.19911813665143        6.87481774074686        1.57487154426110
O           61.61722739868821        7.49960022166703        2.62712344400867
C           62.81896369470244        7.63344344494495        0.58054260552178
O           62.81553989239670        8.99827805028649        0.69967388225714
C           63.42351980272438        7.00090804464954       -0.50271936243703
O           64.00913594255235        7.81154428449867       -1.43936915317010
C           63.41486975596121        5.61477892990754       -0.59832200294086
C           63.97998461552319        2.69137317346183        0.30689470150186
C           65.25254000232367        3.32783200497516        0.48222829388052
C           66.19120654294410        2.35533736577707        0.40948165188999
C           65.49155101925321        1.12589789671929        0.19568872829422
N           64.13560475508881        1.33591297454024        0.15757377754887
H           67.20841249665102       -0.09939434069420        0.02576039259854
H           67.20993691611207       -2.63940185930808       -0.44635603255046
H           65.29790201387763       -4.53138757953691       -0.66066707797037
H           63.36887747266169       -4.90790484157418       -2.54219492049919
H           63.31922151182956       -8.44694239061433       -2.91838150360078
H           62.32543596366673       -9.46711001804818       -0.11418774780959
H           61.63621382422196       -7.47930076334506        2.22810804743530
H           61.98666733859913       -5.28958879031050        1.51458347305492
H           60.07625775767500       -4.52431595565084       -0.22634475932786
H           58.20686258613571       -2.60364794027290        0.05721352083522
H           58.25599551496831        2.59039803104202        0.07201536695101
H           60.17041593630141        4.48660183138036        0.13513409474583
H           61.71007690460555        4.90894405092170        2.26126004774492
H           61.73021939080984        8.45781008289993        2.51411961452934
H           63.28112395782758        9.36673760959283       -0.06789035699690
H           64.39465625762222        7.28825940786788       -2.15426017656828
H           63.87574949648271        5.12954597057652       -1.45068317927283
H           65.39560340714493        4.38320690574094        0.64841662623082
H           67.26300799662459        2.44228631955893        0.49138305725661
C           39.34471316805292       -0.05278669044199        0.13659309478797
C           38.11669237534593       -0.05370910585240        0.13589106556381
C           36.77190265358860       -0.04874207521024        0.12093366915908
C           35.54858090104511       -0.04275600192994        0.10131368071147
C           40.68943418587509       -0.04969470884916        0.13075808172327
C           41.91300258109804       -0.04425231485665        0.11292341645370
C           55.34231125764462        0.00333104538483        0.18215170002566
C           54.11426257456648        0.00339046901015        0.18551270210297
C           52.76953442768968        0.00155486843995        0.17662629847978
C           51.54601302242951       -0.00193235431750        0.15751922332278
C           56.68708779162052       -0.00011850971646        0.16513441827157
C           57.91028205853765       -0.00591335354413        0.13925393347052
Ni          46.72997613488658       -0.01628219634867        0.04475057201305
C           43.31676468009205       -0.03538317086981        0.08827431086380
C           43.98749271322047        1.16667642605166        0.33550860398450
C           43.31793920823829        2.38950065443707        0.64229245242664
C           44.26709580323532        3.35709414398384        0.66488357566593
C           45.51359058967574        2.72068086807710        0.36792602702919
N           45.33488239589581        1.36505912712684        0.20962461423124
C           46.71451455968296        3.40097472144806        0.20831754409816
C           46.70194171191423        4.88220599354662        0.26116235751908
C           47.43717586480946        5.56026301403348        1.23410845825942
C           47.42862900279754        6.95097565481869        1.29827807756502
O           48.13097804878684        7.62207148709857        2.24782969819151
C           46.68322525099162        7.68371706390924        0.36878318060286
O           46.65990514805029        9.04122142638903        0.40086094238530
C           45.95312418549845        6.99714696518074       -0.60522124421518
O           45.24823441930960        7.77465974298530       -1.48750001520554
C           45.95048824182187        5.61059450869155       -0.66300810064969
C           47.92518989581073        2.74862018178886        0.01353890302377
C           49.17450576831351        3.41869052999930       -0.18048726391076
C           50.13507410107924        2.46228962743839       -0.18574551395880
N           48.11494453998650        1.38564362610823        0.06667745181012
C           49.46861113136488        1.21163047293705       -0.01488309301958
C           50.14239763985606       -0.00635945300389        0.12321135571395
C           49.46999513816371       -1.22969248191654        0.20151448890352
C           50.13747497808276       -2.48384976136663        0.34444029248465
C           49.18921094780791       -3.44459456846654        0.22484202138231
C           47.94490995819248       -2.77239505876215        0.00674733806672
N           48.12374093971200       -1.40800744905544        0.03778353080192
C           46.74627236134172       -3.42314438995917       -0.25564272473995
C           46.75791684902357       -4.89920635461677       -0.40458123819626
C           47.50745039819790       -5.48881510879637       -1.42321949704517
C           47.50553546256164       -6.87045300395410       -1.57421937549658
O           48.21244897780473       -7.45513421979741       -2.56972451196299
C           46.76136508641444       -7.66396112034866       -0.69840838373710
O           46.79130763851614       -9.03815109108580       -0.88324621759690
C           46.04511046288735       -7.07845876612346        0.34365922977382
O           45.34512453622636       -7.85092890974329        1.22396145573018
C           46.02757152733236       -5.69465297939387        0.47855146994150
C           45.53699979878272       -2.75055960117023       -0.37148659891436
C           44.28958274196136       -3.38916606816870       -0.66151750198099
C           43.32838857159709       -2.44071041643162       -0.54671638424960
C           43.99258183820155       -1.22361581208341       -0.20629869598580
N           45.34586364318576       -1.40697075593139       -0.13863850333262
H           42.25709516156867        2.48157741245114        0.81076241093692
H           44.14393900447619        4.40798664796718        0.87004695321381
H           48.00795538956270        5.00172827416337        1.96740733428663
H           48.60277810270231        7.01178039627073        2.82964783214179
H           46.09120060311047        9.35203674638750       -0.32199523667169
H           44.77655404157602        7.22718480373925       -2.12856253017337
H           45.38520770110219        5.10153509389573       -1.43477967259691
H           49.29282895936443        4.48345299611311       -0.29784826383776
H           51.20106167188285        2.57822705719426       -0.29721125935034
H           51.19687706114834       -2.59849417102945        0.50778052393672
H           49.31086648568143       -4.51389226287762        0.28200382513121
H           48.07204010170033       -4.88029715260757       -2.11768147640949
H           48.08645148400381       -8.41700751466475       -2.50967345241298
H           45.91604526038138       -9.42233196452858       -0.74358348103818
H           45.65673929613494       -8.76637647736248        1.19080957749583
H           45.46694931526355       -5.25010476991532        1.29060188607720
H           44.17332730111659       -4.42958299484343       -0.91735238522241
H           42.26319414063801       -2.54073647322382       -0.67918209395607
