124
 energy: -222.833780373015 gnorm: 0.000606939567 xtb: 6.5.1 (b24c23e)
Fe          13.03114034672944       -0.03413499593661       -0.11902082898756
C            9.65090732814294       -0.08052968059064       -0.31277796297092
C           10.31207928825060       -1.29127256987977       -0.30954403411737
C            9.64296239734718       -2.55557649305483       -0.36885059500903
C           10.59294702083251       -3.50488203502836       -0.19823511443730
C           11.84517210553488       -2.81929244394540       -0.05879566084546
N           11.66017564810863       -1.46556488346655       -0.13492214911856
C           13.05761494841987       -3.45541135516181        0.18842184478548
C           13.07016218501471       -4.93138096727491        0.33434662019030
C           12.72648332098760       -5.75536942747866       -0.73722828149843
C           12.74009281317247       -7.13503069862697       -0.60110081467901
C           13.09286258595024       -7.70576767867217        0.61961615838016
O           13.11439437470559       -9.05155374566834        0.79808478938496
C           13.43727455935483       -6.89278676440196        1.69805566113493
C           13.42925388009402       -5.51712651471884        1.55035172882603
C           14.26111668310737       -2.77100120144728        0.27953699435959
C           15.53128643576617       -3.41596984310777        0.43337501821993
C           16.47562825820191       -2.45060530257748        0.32797826949775
N           14.43200577568311       -1.41680473321310        0.11091767288834
C           15.78053060216796       -1.21942664777518        0.11880252301883
C           16.43473418846846        0.00345313237213       -0.07937567575253
C           15.75326709845654        1.21906639404561       -0.21804382085469
C           16.41906213787228        2.47171244936848       -0.39013033692676
C           15.45793760603985        3.42673200429574       -0.37537432209596
C           14.20687702355150        2.75198204392352       -0.19765491308207
N           14.40399956782947        1.39381680610642       -0.12732742236505
C           12.98259801276699        3.40173404312831       -0.11129982851830
C           12.96584749415091        4.88306852577369       -0.11008742367980
C           13.61103859396733        5.59809390440539        0.90223220433442
C           13.59437662930220        6.98131949524145        0.91365642922683
C           12.93542361515758        7.67337271791893       -0.10110468468484
O           12.94116150140727        9.03024452324766       -0.06104086870827
C           12.29478324602058        6.97402227136980       -1.12147148840927
C           12.30927027821513        5.58801758960603       -1.11969713599228
C           11.77173698559645        2.71873738482665       -0.05817012360107
C           10.49078687207133        3.36047085021625        0.01479470622640
C            9.55766196102158        2.38377246437616       -0.07753330666502
C           10.26899495268741        1.14570167888954       -0.17789265668174
N           11.62147725919622        1.35975327856181       -0.12982416464589
H            8.56971669622951       -0.09527475604683       -0.39368027053360
H            8.58020865978047       -2.67968132376460       -0.50404167757833
H           10.46680468459684       -4.57462267254172       -0.15881626680057
H           12.46387322802657       -5.31249467759296       -1.69148237596168
H           12.47893345691731       -7.77183789580103       -1.43950938970873
H           12.85898984634218       -9.51855068658633       -0.00876639852985
H           13.70731109264431       -7.35039229629801        2.64171981834957
H           13.68797336496364       -4.88367417550825        2.39137373066192
H           15.67272184727001       -4.47458954585265        0.57785251235919
H           17.54794105359695       -2.54881292116892        0.38018685168065
H           17.48475973615931        2.58976477302117       -0.50276499196836
H           15.57465535829188        4.49211506069267       -0.48921485309652
H           14.11396514330760        5.05956617067166        1.69759239819426
H           14.08606911603461        7.53809051100786        1.70172651986060
H           12.45547200530272        9.40741915882886       -0.80686914419184
H           11.78906978660806        7.51662980552506       -1.91298753167655
H           11.82254785839836        5.04551659027407       -1.92252814230897
H           10.33662115607911        4.42156977162529        0.12496333534962
H            8.48291111251347        2.47312683712493       -0.06971800833824
Fe          31.56976679699395        0.01391224872882       -0.12225615956611
C           34.95040090928838        0.03433553615411       -0.31630798613077
C           34.28865296629623        1.23259605597288       -0.48752551796275
C           34.95718293402830        2.47577408776830       -0.72688081759142
C           34.00636256129018        3.43898026864811       -0.69624286649257
C           32.75431888140277        2.77957429262669       -0.46151784827626
N           32.94016913371354        1.42910747443556       -0.34194962418800
C           31.54124425170448        3.44376309067074       -0.30979790857092
C           31.52783530654569        4.92541787701054       -0.37746328301019
C           31.87059671411104        5.58703041607753       -1.55648169747303
C           31.85620211273580        6.97193517751409       -1.62000185762086
C           31.50368499171996        7.71196254940795       -0.49375536240560
O           31.48140081188947        9.06942593702172       -0.51050751378336
C           31.16022130794891        7.06220076298124        0.69048395804631
C           31.16892444187548        5.67958528251267        0.74194947402421
C           30.33800965225349        2.77881847128113       -0.12239734870878
C           29.06744773268830        3.43848437932199       -0.06352834021751
C           28.12366045863057        2.46744711681987       -0.02933451776794
N           30.16789886067498        1.41433435133657       -0.09476963626755
C           28.81948116827682        1.21935599105359       -0.05919362922155
C           28.16598244812511       -0.01971540261328       -0.07953403718476
C           28.84811878164382       -1.24220389222589       -0.04189550917286
C           28.18297483470122       -2.50691818250768       -0.03193360196534
C           29.14463553543217       -3.44937909181033        0.11968920288560
C           30.39531800470879       -2.75539559288946        0.19850569329841
N           30.19747039138408       -1.40132074320006        0.07302006626830
C           31.61988945862498       -3.38538593982568        0.37715246137445
C           31.63746186438359       -4.85128647729740        0.59071810754362
C           30.99447673694511       -5.41391802286347        1.69628684684066
C           31.01221655672096       -6.78118581740580        1.90606749532033
C           31.66991252366593       -7.61136022832300        0.99990527038788
O           31.66523022726519       -8.94845404757626        1.23427024430572
C           32.30830792844413       -7.06536077228004       -0.11139963574101
C           32.29289345478757       -5.69343662823785       -0.30844260785561
C           32.83040434234967       -2.70123120830000        0.33244189072826
C           34.11152652047442       -3.32535431992618        0.49722546172185
C           35.04435025657059       -2.37121134709701        0.26783517530163
C           34.33262162479405       -1.16046525818241       -0.00864986653101
N           32.98016555850732       -1.36628416618997        0.06782713058661
H           36.03171412940375        0.03808292887879       -0.39681182684973
H           36.02009882082447        2.57997712092194       -0.87680233077388
H           34.13173107657382        4.50336274360507       -0.81108901518019
H           32.13311259570320        5.01173816704457       -2.43729263699625
H           32.11648754925369        7.48180510980214       -2.54137188296841
H           31.73620590328485        9.41576686453991       -1.37621346595807
H           30.89044812604541        7.65051653090015        1.55877810677272
H           30.91102480786082        5.17340650312335        1.66540256786039
H           28.92546253500723        4.50681107566915       -0.07277394409380
H           27.05127589366491        2.57155299735224        0.00770721504159
H           27.11733376196184       -2.64046119997982       -0.12638620285156
H           29.02857989439921       -4.52012851712697        0.16021287730410
H           30.49244834500611       -4.76706639009297        2.40698638861099
H           30.52235267734465       -7.21934879888426        2.76680062222002
H           32.14983778154085       -9.42852252076083        0.54936042868219
H           32.81305791772900       -7.71568524225476       -0.81777741578516
H           32.77802143307608       -5.27144847694337       -1.18155349231470
H           34.26595240259925       -4.35992238324085        0.75733491844187
H           36.11912896130660       -2.45791597092448        0.28944176544560
C           17.83456358300292        0.01179717489661       -0.11150863163618
C           19.06095756363891        0.00942125488061       -0.13216896016633
C           20.40012166259205        0.00124943766771       -0.14926326191625
C           21.63297949897686       -0.00962176177718       -0.15460428166668
C           22.96746927641352       -0.01986343149584       -0.15472955068836
C           24.20036884769988       -0.02856938048946       -0.14651977924886
C           25.53966806673139       -0.02905493806936       -0.13234294678037
C           26.76609206043904       -0.03334842858470       -0.10732569155301
