130
 energy: -251.891716361975 gnorm: 0.000887753498 xtb: 6.5.1 (b24c23e)
Zn          14.69456755154704        0.04430919899252       -0.00332581285894
C           11.29008106537581        0.08199486495973       -0.18399802943714
C           11.91999947789001        1.31885940457611       -0.11591047703403
C           11.24514173042592        2.58588495272592       -0.07589466898299
C           12.20258760799468        3.54335294417516        0.00340118219840
C           13.47621259502369        2.87313619025604        0.00169602954498
N           13.26863056563261        1.52601485452578       -0.06174188875837
C           14.72623509721047        3.50024871658946        0.07774355046346
C           14.74037487748512        4.98502298548411        0.11296289098964
C           14.21429413877308        5.71665570396844       -0.95213927497616
C           14.23186449936352        7.10610217221141       -0.92092241435772
O           13.72927735405254        7.82615111883344       -1.95409216837396
C           14.77233684922538        7.77015818356353        0.18121751311451
O           14.77486203175176        9.14095230545342        0.18510238416837
C           15.29520498917468        7.04032342222792        1.24544253466927
O           15.80592910299849        7.76137791170667        2.29333533108118
C           15.28355310518922        5.65142433206535        1.21488596802479
C           15.96377633165411        2.84782409212640        0.11976805491909
C           17.24529652151211        3.49763527053618        0.13698287544933
C           18.18926318520903        2.52219711217889        0.16252949494393
N           16.15503279839018        1.49155460672764        0.12178300882060
C           17.49598796358199        1.26793773283056        0.15238623601634
C           18.12546438563752        0.00631706526703        0.15831034261897
C           17.47095266048917       -1.24129768261086        0.11474156402242
C           18.13752348777034       -2.51032742942718        0.09961627173665
C           17.17403909482849       -3.46420699037388        0.03421120096127
C           15.90712002670722       -2.78643007017670        0.01478618998117
N           16.12610283655352       -1.43495063971442        0.06091104238372
C           14.65856984990945       -3.40994190041846       -0.07651159746709
C           14.64125785759940       -4.89587131911808       -0.10961144158468
C           15.09873028751794       -5.62779088166717        0.98620383392265
C           15.07466350837725       -7.01731406007278        0.95569391731465
O           15.50683606847251       -7.73894846412270        2.01931463119130
C           14.60100546143521       -7.67978173047158       -0.17797552095474
O           14.59282740828537       -9.05077083568911       -0.18122759606439
C           14.14943540949028       -6.94883528263298       -1.27384967820999
O           13.70435489584171       -7.66831175154378       -2.35267648161964
C           14.16277444405678       -5.55986185076236       -1.24232871971903
C           13.42221147266490       -2.75598079422351       -0.14292865033235
C           12.13722931860051       -3.40152168011736       -0.19488960416917
C           11.19784136635648       -2.42324698559884       -0.22850411633823
C           11.89579200071250       -1.16890471645895       -0.18896581128999
N           13.23978081520558       -1.40391673721704       -0.13615492593221
H           10.20529533385066        0.09384227780804       -0.22650013266613
H           10.17421294188741        2.71406636116171       -0.09848565623373
H           12.06260874267101        4.61040796385496        0.06904080733428
H           13.80766612971973        5.21236671536037       -1.81923394509747
H           13.83426036614356        8.76940724286022       -1.74692408076884
H           15.18593537503266        9.43559582383778        1.01330138940537
H           16.15599647160823        7.17366400527167        2.97554026142770
H           15.67902407655864        5.09061145556964        2.05367814585841
H           17.40302590628714        4.56398836603108        0.11569038346186
H           19.26168394034243        2.63504444100147        0.17879407763851
H           19.20699864205945       -2.64576557802266        0.12962369938380
H           17.30720426292171       -4.53320862211827       -0.00847860937259
H           15.45716359877902       -5.12373305504469        1.87450370507361
H           15.41059126102276       -8.68185105557005        1.80623660181082
H           14.23906741622326       -9.34429340853356       -1.03618760750189
H           13.41870190696667       -7.07919861555049       -3.06316367802472
H           13.82004038587099       -4.99711888071547       -2.10291055209963
H           11.97827098665902       -4.46814244517037       -0.19268636002334
H           10.12502225135549       -2.53014222070854       -0.26867110700226
Zn          30.73065023989377       -0.04426045421808       -0.00831629647450
C           34.13510668503975       -0.06154665325627       -0.19205697812063
C           33.50530336354407       -1.29834171613453       -0.26231542770208
C           34.18008451276611       -2.56200350560993       -0.36374475327179
C           33.22248355778811       -3.52213406631578       -0.39390340193898
C           31.94893476561077       -2.85567395388339       -0.32201204698557
N           32.15661406718735       -1.51002369357253       -0.23320514254698
C           30.69880383590091       -3.48705446278605       -0.31970965542492
C           30.68457797175096       -4.96629616355868       -0.45305193795508
C           31.20937651109597       -5.57238170951260       -1.59482825625339
C           31.19153155651938       -6.95642044800251       -1.72133075000878
O           31.69242110784369       -7.55473835618974       -2.83023192244410
C           30.65266002119100       -7.74111393255361       -0.70069887507079
O           30.65017562899246       -9.10353542732976       -0.85209179665085
C           30.13136004908990       -7.13664727208083        0.44014173193938
O           29.62245491038578       -7.97187208873464        1.40049739705666
C           30.14268905671113       -5.75320614819629        0.56695536562499
C           29.46125283571494       -2.84338995171662       -0.20597214843147
C           28.17971731786344       -3.49073613292122       -0.26505513401317
C           27.23575375652447       -2.52446859443921       -0.12913288819370
N           29.27007918658053       -1.49625548875684       -0.04895688756402
C           27.92911528406180       -1.27745238448782        0.00567228461296
C           27.29983103055789       -0.02484622840861        0.15722732649210
C           27.95452160599977        1.21939539822583        0.25763343907235
C           27.28800530591811        2.48167358795512        0.38942614484585
C           28.25142725749367        3.43689633443767        0.43193987193882
C           29.51831870012136        2.76604401328910        0.33279639782623
N           29.29931042933483        1.41810055014359        0.22442862632403
C           30.76678275658749        3.39615147595342        0.31009896587449
C           30.78412733403779        4.87616557869548        0.44565804146269
C           30.32407882341274        5.47929697627518        1.61634119943594
C           30.34776115689562        6.86331251734940        1.74354671739445
O           29.91253373139688        7.45971473939153        2.88093775201714
C           30.82427162925768        7.65000247883126        0.69356198481115
O           30.83232255056630        9.01250059870113        0.84583284968448
C           31.27875845169644        7.04792676739332       -0.47694615465747
O           31.72679571127583        7.88500071756137       -1.46595851948827
C           31.26515557581610        5.66436434560305       -0.60331037815980
C           32.00299988017137        2.75400229127380        0.16763518069149
C           33.28803173773954        3.40131540315721        0.18653549741039
C           34.22727097954537        2.43300334305868        0.04230572684986
C           33.52926451068973        1.18208993896474       -0.05774927856055
N           32.18533775778446        1.40970564565857        0.02241024608891
H           35.21989597836302       -0.06844151479575       -0.23549028687402
H           35.25104564623718       -2.68704391639668       -0.39896441175738
H           33.36213286314106       -4.58986347097629       -0.44851311168363
H           31.61519731700247       -4.97299249760591       -2.39953620251413
H           31.58743015209125       -8.51538602030212       -2.73117993148254
H           30.24071974172736       -9.49017864445459       -0.06178757853599
H           29.27424686927277       -7.46531771509714        2.14582979531249
H           29.74803491236491       -5.29095118207968        1.46420405591146
H           28.02219049563042       -4.54763919733704       -0.40856400853399
H           26.16327786043110       -2.63816473513841       -0.12753499385950
H           26.21859926874321        2.61268232396056        0.43680110974654
H           28.11798188971519        4.50370765347269        0.51214115598224
H           29.96393440778980        4.87788129411955        2.44108823577672
H           30.00891977013847        8.42070038823247        2.77636945842218
H           31.18856571082790        9.40102095178404        0.03072869902215
H           32.01487684243978        7.38018139414001       -2.23769023253395
H           31.60964450345632        5.20293604966973       -1.52153429605555
H           33.44734413764805        4.46094276020884        0.30802078267150
H           35.30004216567909        2.54380754293022        0.01280208447009
C           23.32689498752147       -0.01243380811737        0.22427511045872
C           22.09842418800512       -0.01109423915723        0.22468657416936
C           20.75417526496391       -0.00924222308707        0.21156374687301
C           19.53018991132201       -0.00614386835844        0.19307493021577
C           24.67114829909622       -0.01377616119869        0.21282936892094
C           25.89510858625142       -0.01619714416970        0.19275631576878
