290
 energy: -506.622933748890 gnorm: 0.000458450131 xtb: 6.5.1 (b24c23e)
C           36.52553039873481       -0.06805748628763       -0.00334311609937
C           37.15110816111331       -1.30677125350721       -0.06577789059816
C           36.53786502258799       -2.59101573439110       -0.12983319974210
C           37.53047425380751       -3.52905709613558       -0.17713924445494
C           38.78115302817140       -2.84781293449060       -0.14344542379263
N           38.50121954793040       -1.51356981519762       -0.07665943824378
C           40.05040170804983       -3.41389255920085       -0.17182318773113
C           41.26882048162387       -2.75135301827890       -0.13865376313010
C           42.54879878008006       -3.43653098255894       -0.17240568148685
C           43.49605706331799       -2.47711910533541       -0.12444330518730
N           41.45878094463178       -1.40530418706264       -0.07173037452912
C           42.79076874449872       -1.20943572258114       -0.06175757676782
C           43.44338802765292        0.03976335229127       -0.00060392029647
C           42.79243779698663        1.28649152013502        0.06045452698882
C           43.40060342785901        2.56939409294775        0.12334023174914
C           42.40429958841298        3.50518895128787        0.17006404771822
C           41.15773223199254        2.81975884124287        0.13706558068649
N           41.44490026746975        1.48296985871273        0.07084097555923
C           39.88970101011072        3.38630405883563        0.16628922694762
C           38.67028516459842        2.72107594977134        0.13442979094312
C           37.38412160319204        3.40004630803023        0.16961793926181
C           36.44276548130500        2.43613482232770        0.12230929644096
C           37.15474245556348        1.16963474640995        0.05827004559849
N           38.49253114201132        1.38081404652292        0.06765775412897
H           35.44070360611238       -0.07693982508945       -0.00312793850518
H           35.47271889663573       -2.75964864399171       -0.13787634859018
H           37.42034136001428       -4.60056956023185       -0.23069660447666
H           39.19564186256996       -0.77495312930834       -0.03991409448441
H           40.08286063627417       -4.49738860761636       -0.22590392005352
H           42.67199268436678       -4.50688508296426       -0.22558712872104
H           44.56899412684761       -2.58571861390277       -0.12957423879407
H           44.46502469150361        2.74129236094256        0.13125413527536
H           42.51152805565413        4.57689076722451        0.22287118058398
H           40.75302187270493        0.74163191282296        0.03480015941422
H           39.85840082287816        4.46976889276249        0.22011105666080
H           37.25565276387518        4.46992896353540        0.22329556828375
H           35.36868016646010        2.53752072588357        0.12843762514622
C          140.25066859691628        0.06861442136806       -0.00862725519554
C          139.62312096745006        1.28881461446318       -0.22531115002797
C          140.23429854036505        2.55605985677887       -0.44894607372911
C          139.24018107838282        3.47916207759436       -0.61338475512968
C          137.99060714329744        2.80535045356751       -0.49519774946585
N          138.27268246463277        1.49033595272275       -0.26243522660930
C          136.72045903407090        3.36147405313716       -0.59353053101303
C          135.50312783766071        2.70633453994453       -0.47740634313117
C          134.22207499573375        3.38017464409453       -0.59469330785036
C          133.27635423981181        2.43274546554200       -0.42724938037337
N          135.31532394190816        1.37868982218737       -0.24394181066225
C          133.98365079953874        1.18358464857175       -0.20874881032614
C          133.33297215140715       -0.04967774743871        0.00554335060468
C          133.98581021348141       -1.27852276815899        0.21849892197075
C          133.37972860871488       -2.54501123922945        0.43838809392631
C          134.37755562729680       -3.46623748812912        0.60023804077830
C          135.62302796782802       -2.78791819505991        0.48375273829013
N          135.33368250576646       -1.46995653518740        0.25335963026555
C          136.89198116893280       -3.34425738664162        0.58364371036768
C          138.11033724905562       -2.68582769186932        0.47128053183211
C          139.39758446620939       -3.35289649354338        0.59162585426348
C          140.33740325961384       -2.40050520758945        0.42668486767724
C          139.62341336588929       -1.15295698825546        0.20560590258241
N          138.28596087888661       -1.36377281481538        0.23958873078591
H          141.33547800121121        0.07937427971021       -0.00859350511092
H          141.29916958194300        2.72417807193271       -0.47762440009133
H          139.34854275722870        4.53578182896209       -0.80033067665042
H          137.57946269910536        0.76089635901489       -0.13400024849723
H          136.68622956921240        4.42974955421772       -0.78208393367210
H          134.09714861584138        4.43549913454543       -0.78000421757134
H          132.20326540797896        2.53841704967200       -0.44483297565207
H          132.31557327720122       -2.71638847673070        0.46704608914265
H          134.27209446459960       -4.52348290932157        0.78448720985222
H          136.02436485931005       -0.73748250983938        0.12680691605546
H          136.92504317186911       -4.41276276306742        0.77067379144465
H          139.52779345775008       -4.40770076177667        0.77728430741634
H          141.41164737089838       -2.49838668416160        0.44659178921448
C           48.64350290074861        0.07715676950507        0.00181804556694
C           47.41477987662537        0.07424310054941        0.00185122935984
C           46.07120350368437        0.06720177029751        0.00013604653359
C           44.84705930495292        0.05441573969424        0.00024750103710
C           49.98691962743437        0.07871730111166        0.00330756871571
C           51.21130765677443        0.07582988952845        0.00430574189989
C           64.79148362485135       -0.01408435593604       -0.01014758788638
C           63.56263415775784       -0.00474483598952       -0.00926863255844
C           62.21976021651327        0.00351531286734       -0.00946926487802
C           60.99530264253088        0.01291465243930       -0.00363259612711
C           66.13435814965443       -0.01876488111718       -0.00811917016324
C           67.35882792079445       -0.02375511490818       -0.00714739154594
C           80.93283016581472        0.01191594469975       -0.01397851912499
C           79.70398382581335        0.00889431760322       -0.01068609413100
C           78.36124612741757        0.00221049663979       -0.00568410015256
C           77.13681808508692       -0.00218668727931       -0.00115371800325
C           82.27559025641207        0.01468686412307       -0.01624050040853
C           83.50003099584960        0.01375375861721       -0.01637355319611
C           97.07228403374948       -0.00425855637864        0.00208517979316
C           95.84348724012879       -0.01367253265864        0.00863915718413
C           94.50075319927458       -0.02143428909166        0.01331680745189
C           93.27630863802919       -0.02529438018998        0.01772012909121
C           98.41500277755706        0.00544896245617       -0.00338038501476
C           99.63941394072123        0.01346812786270       -0.00844823932175
C          113.21364729105174       -0.00129694347339        0.01008387453921
C          111.98476873575737        0.00688494990789        0.01186817205083
C          110.64189212266288        0.01137259374069        0.01224065696907
C          109.41743217651178        0.01666188968350        0.01127413804532
C          114.55652898817868       -0.00808508502590        0.00719607605701
C          115.78098073916733       -0.01672197280557        0.00646119851197
C          129.36148051143681       -0.07602785865350        0.01174566741142
C          128.13275364492108       -0.07514055033913        0.01093712645149
C          126.78929826513236       -0.07302687490260        0.01021048449373
C          125.56494502138203       -0.06603861003184        0.00878352148094
C          130.70510905196295       -0.07252075913900        0.01120097768815
C          131.92927440201535       -0.06559659608484        0.00778840402702
C           52.61407701232228        0.07162409928880        0.00485134839277
C           53.25929955806546        1.32362125070624       -0.00614161255798
C           52.64914511566612        2.60573202314678       -0.01722348128138
C           53.64523490137940        3.54425105819556       -0.02659956049590
C           54.89129392777171        2.85965795529649       -0.02162589698630
N           54.60671093268647        1.52161907720216       -0.00899179120895
C           56.15890161262381        3.43205066016898       -0.02889927630039
C           57.38481784520531        2.78509969977685       -0.02514879812326
C           58.65551424480350        3.48797819619861       -0.03445530579937
C           59.61563451003997        2.54007912413918       -0.02740543157623
N           57.59278935908485        1.43989190794158       -0.01282690861297
C           58.92719809808516        1.26230448442979       -0.01366861008027
C           59.59300792609397        0.01868137944992       -0.00244371967267
C           58.94797725165251       -1.23338111282946        0.01150239873368
C           59.55844214015357       -2.51544301001601        0.02407961794803
C           58.56254328298616       -3.45398948171931        0.03526904214487
C           57.31629920233880       -2.76952340712527        0.02972304409062
N           57.60081257492390       -1.43132071626818        0.01541021828014
C           56.04887162284166       -3.34151570661991        0.03668952432835
C           54.82285073527205       -2.69421827409834        0.03071790450633
C           53.55239005068768       -3.39734369335158        0.03776244894438
C           52.59206248503973       -2.44967264878441        0.02840507649583
C           53.28008137220782       -1.17175656982982        0.01598987368601
N           54.61487282398833       -1.34923964373200        0.01758415460645
H           51.58457256660308        2.77651994764935       -0.01787988250129
H           53.53670869387212        4.61705895945983       -0.03631095176115
H           55.29695632706169        0.77788688220924       -0.00300491698416
H           56.18033103483103        4.51733180866386       -0.03907287243197
H           58.76433294879563        4.56115732798680       -0.04496363735428
H           60.68708654166031        2.66261588649418       -0.03082242301003
H           60.62303153325402       -2.68610846163586        0.02440289210433
H           58.67127997538385       -4.52675423368505        0.04635322099188
H           56.91053244905854       -0.68764875432928        0.00859184369421
H           56.02710378056426       -4.42677353178627        0.04775148264458
H           53.44388572683886       -4.47053780648090        0.04828780386557
H           51.52068854481550       -2.57258409872172        0.02967317139364
C           68.76115070551747       -0.01837517201350       -0.00521705476287
C           69.39486571997847        1.23960289514903       -0.01915885808957
C           68.77206516916398        2.51563105804929       -0.03577657634934
C           69.75879195157056        3.46391507927638       -0.04436460804852
C           71.01140604521738        2.79159499135142       -0.03329889987919
N           70.74007961242597        1.45071898929280       -0.01831006603331
C           72.27350156403664        3.37570282183633       -0.03722840184219
C           73.50463159724626        2.73884308358566       -0.02824394155008
C           74.76967046562963        3.45165656280816       -0.03543121882506
C           75.73710429617904        2.51127683407429       -0.02526186510353
N           73.72289487794181        1.39527545947526       -0.01322273876477
C           75.05860851804420        1.22818392538011       -0.01130304049580
C           75.73463587087578       -0.00983754488651        0.00249246418212
C           75.10133306192868       -1.26783700252792        0.01961243883651
C           75.72421014318448       -2.54384136546081        0.03717511503763
C           74.73749131337397       -3.49206559978677        0.05046724269822
C           73.48476456434810       -2.81977152981448        0.04093664730649
N           73.75615575605505       -1.47890880769475        0.02272264270151
C           72.22261891168412       -3.40359712337078        0.04739378020875
C           70.99136901595931       -2.76668878329107        0.03629218071894
C           69.72639232638896       -3.47962681406381        0.04276960103137
C           68.75881547303428       -2.53941032329978        0.02764889788559
C           69.43708858188140       -1.25629366481480        0.01222336715506
N           70.77295679392365       -1.42326697691598        0.01771186311779
H           67.70590483233863        2.67599808150700       -0.04044036612785
H           69.63971645996359        4.53555414284416       -0.05731597355265
H           71.43797153744649        0.71424216066767       -0.00779885479992
H           72.28549340314123        4.46107447737434       -0.04952067389090
H           74.87006792925841        4.52563047009124       -0.04695919091805
H           76.80754976804882        2.64221607320191       -0.02633661537838
H           76.79040890771387       -2.70410658245129        0.03948041009649
H           74.85665099355705       -4.56367566899912        0.06537924107344
H           73.05829911512311       -0.74240603893950        0.01243368707959
H           72.21049101434794       -4.48894338784829        0.06218531044105
H           69.62615467396880       -4.55358775568097        0.05685856551100
H           67.68836862094966       -2.67038092377538        0.02662189933937
C           84.90224447029078        0.01272150127645       -0.01290997309057
C           85.54361292633106        1.26664402637183       -0.02646642673020
C           84.92896372916795        2.54659152328923       -0.04584285611301
C           85.92175518287569        3.48854572694928       -0.05265642954692
C           87.17003247672906        2.80823166221189       -0.03756900840955
N           86.89010560444163        1.46913461453837       -0.02241279916641
C           88.43598433903644        3.38382295989931       -0.03764134396953
C           89.66266097704820        2.73844852628141       -0.02350099888143
C           90.93250867068402        3.44261871510283       -0.02619092732266
C           91.89345314268643        2.49568742184406       -0.01156058127614
N           89.87166863758321        1.39341848475731       -0.00671877205842
C           91.20621906794769        1.21722440295317        0.00047356378874
C           91.87409292545232       -0.02524380771571        0.01709008355187
C           91.23281196076934       -1.27915898983787        0.03219751973135
C           91.84743846814528       -2.55911068552621        0.05203512919763
C           90.85461564200595       -3.50102227658311        0.06127425275905
C           89.60631768321655       -2.82069208600519        0.04699108491193
N           89.88629530528650       -1.48162632471010        0.03016362386912
C           88.34032851151032       -3.39623753652452        0.04844717105434
C           87.11361564095434       -2.75089813611691        0.03330644733765
C           85.84374667752161       -3.45507298874478        0.03583333621143
C           84.88279901308863       -2.50817225695574        0.01866013414729
C           85.57002634881641       -1.22972613129384        0.00567963736712
N           86.90458824837067       -1.40590751492361        0.01458399999368
H           83.86383786541950        2.71364981672322       -0.05350650918232
H           85.80961647327948        4.56092081862112       -0.06680563848692
H           87.58328113753166        0.72825858774880       -0.00931009467725
H           88.45550837069594        4.46907110111922       -0.05068607068259
H           91.04028645142607        4.51586818880731       -0.03800643499311
H           92.96473660117580        2.61943807677571       -0.00846485254982
H           92.91257747836248       -2.72616668984188        0.05849310618082
H           90.96674098223916       -4.57338823435003        0.07644609146135
H           89.19312995059552       -0.74074077151201        0.01716625972586
H           88.32079582581208       -4.48147285583805        0.06281051323085
H           85.73596493654991       -4.52830849965838        0.04910189839257
H           83.81150559550161       -2.63187338777189        0.01463100275875
C          101.04160306307443        0.01932632520884       -0.01060947918681
C          101.67732742518764        1.27606131079308       -0.02702444071415
C          101.05707834210223        2.55332342949561       -0.04576457935177
C          102.04576009408783        3.49953634252996       -0.05731364643286
C          103.29710514637085        2.82469026860594       -0.04551230074399
N          103.02294345415453        1.48439590827782       -0.02779020130171
C          104.56047666328978        3.40588952316018       -0.04972636469668
C          105.79039927327102        2.76644480074793       -0.03664347553420
C          107.05682081995586        3.47682845089568       -0.04135104334201
C          108.02247450547036        2.53466125688500       -0.02504523921393
N          106.00608224603654        1.42257756296515       -0.01779665901301
C          107.34160625846485        1.25290068343358       -0.01062115762897
C          108.01510672227103        0.01363647245645        0.00769031727842
C          107.37891950677212       -1.24306137501497        0.02171696144629
C          107.99910882523028       -2.52033072512339        0.03998518207015
C          107.01043807686573       -3.46659979515493        0.04775364332924
C          105.75921655223672       -2.79173411939752        0.03455940271355
N          106.03328178066630       -1.45143053941248        0.01928089704959
C          104.49591387807034       -3.37322714506245        0.03668231777845
C          103.26613442453100       -2.73382631772802        0.02513371388341
C          101.99966531976092       -3.44408701791065        0.03032912227433
C          101.03415494619841       -2.50177399988568        0.01793482788610
C          101.71524734399755       -1.22003597377092        0.00464267820005
N          103.05060671857954       -1.38981295915688        0.00904469419217
H           99.99120452676119        2.71572973186583       -0.04999984389697
H          101.92883353518880        4.57139157240733       -0.07246334350606
H          103.71928096414129        0.74647473866974       -0.01614175407080
H          104.57489889757031        4.49121043848832       -0.06446167456858
H          107.15926907627407        4.55058403061159       -0.05524930920130
H          109.09317634505712        2.66349888195583       -0.02259476690878
H          109.06493640668201       -2.68284628377284        0.04620155606091
H          107.12728688652633       -4.53847400343325        0.06143936676028
H          105.33691055033140       -0.71353248681031        0.00735525555431
H          104.48162925061595       -4.45856329230980        0.04949365135117
H          101.89706403673905       -4.51784630376279        0.04217161451644
H           99.96346420788076       -2.63063321597477        0.01709045194137
C          117.18327929309345       -0.02022396714407        0.00298211157400
C          117.82645440090577        1.23266191452475       -0.02083035613576
C          117.21411062810712        2.51367999207438       -0.04466674056871
C          118.20861921891708        3.45356165053351       -0.06433900524132
C          119.45589267515798        2.77102766384478       -0.05265277447656
N          119.17333555802739        1.43258134193498       -0.02638667901920
C          120.72247666504177        3.34481020732922       -0.06513413054266
C          121.94948742911460        2.69942487190173       -0.05263366036554
C          123.21895600314707        3.40427662608554       -0.06689829890948
C          124.18065942296788        2.45815184716450       -0.04698458820258
N          122.15940977136231        1.35499914760409       -0.02496302214402
C          123.49448334621694        1.17946291268526       -0.02068005736800
C          124.16212701734345       -0.06269692247754        0.00705259433086
C          123.51862888945038       -1.31539134775860        0.03243763909736
C          124.13071409929405       -2.59637038307614        0.05877070544831
C          123.13606063694191       -3.53631246581261        0.07391662469259
C          121.88898829404515       -2.85376334954361        0.05742587332220
N          122.17152928797294       -1.51545278379131        0.03295414591317
C          120.62227979808584       -3.42810807917542        0.06430441496341
C          119.39543440633722       -2.78309435468518        0.05035901703920
C          118.12575848217082       -3.48778363841502        0.06085362089413
C          117.16428272361615       -2.54137913713252        0.04465605213943
C          117.85090408156103       -1.26272946425051        0.02373426062562
N          119.18555785450415       -1.43832803810433        0.02728192792864
H          116.14927045286964        2.68276545532666       -0.04661761014507
H          118.09827527550905        4.52602206119830       -0.08506300180463
H          119.86472730069023        0.69003897264897       -0.01287020466369
H          120.74261981096187        4.42994228114374       -0.08681120955159
H          123.32589618874341        4.47745657666101       -0.08895582190452
H          125.25187176522824        2.58252138274470       -0.04907131164674
H          125.19552938479774       -2.76550281642513        0.06481704819785
H          123.24621484194256       -4.60879545690488        0.09462601499512
H          121.48015894978785       -0.77292381284286        0.01656329049758
H          120.60248909321434       -4.51329305573270        0.08356793591798
H          118.01849853106083       -4.56102408217337        0.07845000170025
H          116.09300470020219       -2.66546806242977        0.04582945636697
