318
 energy: -527.851657909274 gnorm: 0.000425888106 xtb: 6.5.1 (b24c23e)
C           59.80775090601944       -0.02528377137142        0.12238797421767
C           60.41719201849052       -0.89513554324295        1.01779712491640
C           59.76573664768681       -1.79711198969942        1.90457103589072
C           60.72821220522751       -2.45805932766367        2.61542887593115
C           61.99853969049892       -1.97133027161831        2.19541139760617
N           61.76014997560150       -1.04090615373801        1.22349304392982
C           63.26158131574548       -2.35729427296502        2.66073251528556
C           63.29561442798383       -3.36322269794662        3.74823970696508
C           63.95330488915505       -4.58259434994275        3.56653065112598
C           63.98361250155075       -5.52985440231384        4.57418708473580
C           63.36575578224804       -5.26960972388431        5.80012593926364
N           63.36064086765850       -6.23016552879661        6.79682393338615
C           62.70252899125531       -4.05443708791520        5.98886866881172
C           62.66855708317475       -3.11657090121832        4.97202138153794
C           64.47499241324203       -1.86319850207286        2.17394699220421
C           65.77125803639305       -2.21260256013634        2.72577343685143
C           66.69066778612046       -1.54865525481833        1.99418126151592
N           64.62817319729727       -0.98662149938307        1.14314428730774
C           65.95463608898446       -0.78948569824976        1.00258520017482
C           66.59080640087363        0.00905798137584        0.03028628689035
C           65.95413262528221        0.80431581016498       -0.94190306871078
C           66.59719307925313        1.57306632013342       -1.94725161333061
C           65.63028474481209        2.21878124858355       -2.66777578903148
C           64.36626092027713        1.87224069975911       -2.11601041623934
N           64.61368547203762        1.00508412551305       -1.08419643056374
C           63.10515370040292        2.30891755166093       -2.53836462556882
C           63.07222138620143        3.29002600485775       -3.64720943290073
C           62.39245653310873        3.00134268521026       -4.83351794501297
C           62.36293851361552        3.91188209001214       -5.87454504756839
C           63.00434900205034        5.14651054584561       -5.74501280260115
N           63.01050522488528        6.04382557132272       -6.79878339600809
C           63.68955810376224        5.44195516913733       -4.56369793721198
C           63.72214245515556        4.52160146467781       -3.53121334649583
C           61.89073861199378        1.88350369251670       -1.98724205754118
C           60.58814161784574        2.39268394425801       -2.38612581845698
C           59.67556105198824        1.73448802667439       -1.64250329282531
C           60.41996922697128        0.83374315293796       -0.78101210129237
N           61.75085813953906        0.95946674483800       -1.00730102402879
H           58.72234238619527       -0.02492243937679        0.13606392203604
H           58.69671335212964       -1.92118576293421        1.97421430039576
H           60.57644686645557       -3.22334826050696        3.35924991197896
H           62.48553905381248       -0.53784008912918        0.72351304946547
H           64.42764410707984       -4.79552911621603        2.61482107038218
H           64.48776027527033       -6.47710770044782        4.41678867833716
H           63.20537385335044       -5.87685568704681        7.72750197086254
H           64.10397277848379       -6.90777747103499        6.73805338761314
H           62.21875683235015       -3.84757368504176        6.93729563306570
H           62.16919960530785       -2.16753702172824        5.13470121729551
H           65.93408359571183       -2.86358591516514        3.56952284796381
H           67.76382242039791       -1.55011823328955        2.10025603358380
H           67.66399796788863        1.61519524594259       -2.09725334932134
H           65.77724714624171        2.86885539817823       -3.51476916263465
H           63.89226069724939        0.57264007947173       -0.51661405213833
H           61.90135433023237        2.04102437372513       -4.94637133535309
H           61.84170639700526        3.67099776011131       -6.79463521503436
H           62.25633561865700        5.93244517114765       -7.45745563915324
H           63.18844319713588        7.00157663136338       -6.54173597766326
H           64.19161073307149        6.39750669469263       -4.45795149635353
H           64.23887975159853        4.76788714955360       -2.60993373515087
H           60.41928082626994        3.16065365401191       -3.12390437867011
H           58.60129525266032        1.83475769507417       -1.64703241430640
C          120.35074893333748        0.08125366465379       -0.08055290466579
C          119.74287817385506        0.71998710570840       -1.15398951873172
C          120.39625846113805        1.34051071581557       -2.25505442531703
C          119.43509663537100        1.85119069978590       -3.08202127322215
C          118.16368616390554        1.56930281698866       -2.50666979721342
N          118.40015913008911        0.87793055870404       -1.35208230563060
C          116.90141936039089        1.90503931799288       -3.01134636578483
C          116.87165206426980        2.68952255031581       -4.26840783288695
C          116.23467850708464        2.18774073288041       -5.40613659084238
C          116.20691251297660        2.91492512682444       -6.58273052936466
C          116.80653729786694        4.17555210989222       -6.64241559807356
N          116.81349940522624        4.88985131516386       -7.82825715206880
C          117.45039659100360        4.68239217196622       -5.51078012697072
C          117.48194659289945        3.94410494049354       -4.34092400017527
C          115.68637074321219        1.55751257044987       -2.41488477751727
C          114.38955100044041        1.97390079070973       -2.91669184501837
C          113.46894978096235        1.44952655564501       -2.08084219279983
N          115.53177911456156        0.81300057098445       -1.28496171866389
C          114.20471225494548        0.72346596293285       -1.06440629183580
C          113.56720678519716        0.03678341833406       -0.01075041304366
C          114.20135209456808       -0.65337981924135        1.04009159486500
C          113.55459992253928       -1.38384062424558        2.07141852045541
C          114.51990302092825       -1.90893635109367        2.88581249626164
C          115.78698076399881       -1.50401802272661        2.38286917461148
N          115.54216544585888       -0.75399663218576        1.26226301823673
C          117.04838972131893       -1.81887683111557        2.90124735954916
C          117.08228925038554       -2.62929182841835        4.14054333165770
C          117.73320953706700       -3.86574440732928        4.16136060751285
C          117.76441520083426       -4.63259715365367        5.31220145738600
C          117.15401542348319       -4.16903294231599        6.48054925519519
N          117.14889076228656       -4.95095309137063        7.62250736159332
C          116.49812475406398       -2.93536945770980        6.46773182637294
C          116.46340925768116       -2.17916500222920        5.30950569430631
C          118.26427873763460       -1.42627278751648        2.32926368104176
C          119.56787883576658       -1.69775875015061        2.91419589636439
C          120.48163353617895       -1.16596434166141        2.07686253049566
C          119.73729869296956       -0.56093014847498        0.98713000492474
N          118.40530026357135       -0.72807807581810        1.17768475396658
H          121.43620728548409        0.08853258868193       -0.08593322199725
H          121.46562047539196        1.37759127494778       -2.38974874287303
H          119.58821122213068        2.36895768246957       -4.01500580279463
H          117.67363874013536        0.52659372968987       -0.73725402286397
H          115.77447225076536        1.20640957652389       -5.37027803681080
H          115.71853801377587        2.50991440246891       -7.46233283533870
H          116.95265979407260        5.88246907280555       -7.72570205698064
H          116.07970237406120        4.64732405657926       -8.47471226795897
H          117.92063265787691        5.65888362003408       -5.55174764157486
H          117.96612434224841        4.35408074141592       -3.46116339245253
H          114.22670324118293        2.59703857494356       -3.78117959715041
H          112.39510598595585        1.53968911684325       -2.12096805539402
H          112.48640048943294       -1.49592371617091        2.16488557476602
H          114.36957838483868       -2.53265917190682        3.75180385623008
H          116.26583638854170       -0.34876061851120        0.67768232594810
H          118.20026875004130       -4.23739345706223        3.25588108687961
H          118.26291764642299       -5.59580216051543        5.31196744872420
H          117.88648570857389       -5.63531060175845        7.67355479181553
H          116.99884930165702       -4.44855404419499        8.48274725529235
H          116.02039548278533       -2.57114960524360        7.37076057670819
H          115.96997326942916       -1.21329095099375        5.31474309454244
H          119.73666843875441       -2.21077514058416        3.84742744608911
H          121.55684998156174       -1.15969955530396        2.16619299169927
C           69.21893418714272        0.03693031808494        0.00177972904888
C           67.99669984863534        0.02073579494497        0.01678518408018
C           70.56811323283725        0.05001411211168       -0.00491182251595
C           71.79066767773935        0.06430524802234       -0.01248122302961
C           82.67516541539837        0.07659122892396       -0.00147173707307
C           81.45208238948678        0.07305969563442       -0.00127725223697
C           84.02323650517103        0.08217262781533        0.00193312551207
C           85.24631769417481        0.08995612826255        0.00225016835174
C           96.13277068261669        0.05603101707324        0.02001707768373
C           94.90967684863578        0.05659454982918        0.02152062598960
C           97.48094240827002        0.05752993113902        0.02424773580957
C           98.70401505721877        0.06182054239072        0.02349241238714
C          109.58953603721127        0.02057617317225        0.02399869193959
C          108.36695333301019        0.01932789111620        0.03172766621244
C          110.93878617154017        0.02363230248098        0.01652705050347
C          112.16118276887622        0.03050408328465        0.00327200275540
C           73.19570551589058        0.07183703519681       -0.00982568867817
C           73.81935881154919       -0.28078338828107        1.20311090376737
C           73.16759766349895       -0.66794585330968        2.40176681127382
C           74.12889520270254       -0.88911573972796        3.35074135269596
C           75.39562621383952       -0.63337758096156        2.76007172989898
N           75.15834634095911       -0.28273025001358        1.45763491342228
C           76.65197779643083       -0.72488325565766        3.37426587591547
C           76.65978734168560       -1.05931777273874        4.81804500859203
C           77.31841818363057       -2.20054922694611        5.28270264222361
C           77.32603542815937       -2.51643631020562        6.62955917759104
C           76.68393344319205       -1.68309697919966        7.54917604423324
N           76.65731020753717       -2.01533335135345        8.89251253017640
C           76.01854163341784       -0.54255235789910        7.09229528240236
C           76.00723215925538       -0.23957013102298        5.74243036214034
C           77.87733863439581       -0.52353649055612        2.73572405350015
C           79.15951531525195       -0.55666905753652        3.41522646290509
C           80.09923476675695       -0.33808867069249        2.47144551144094
N           78.05836908004669       -0.26281575537093        1.41093844020818
C           79.38894977269509       -0.15997299394670        1.22119420186429
C           80.04821194201665        0.07197790892521       -0.00361001526331
C           79.42444346445488        0.30686288951768       -1.24500723127025
C           80.07628348425564        0.49297945714515       -2.49071015702866
C           79.11478626742068        0.71166871126710       -3.44004141457031
C           77.84784620604155        0.67747770953033       -2.79753283866963
N           78.08560648480562        0.41648504499269       -1.47399756600294
C           76.59118748657656        0.86607355368675       -3.38775637406053
C           76.58003197536424        1.18888996598671       -4.83408484938993
C           77.23468140112399        2.32376557382056       -5.31934101812475
C           77.22323691690181        2.62697112288658       -6.66925387839673
C           76.55595778141169        1.79256534067890       -7.56972282967922
N           76.58412305821575        2.06509289390306       -8.92637681581842
C           75.91016278909460        0.64829978605334       -7.09426127824444
C           75.91756455976410        0.35833417679008       -5.74171776153908
C           75.36637757866343        0.77041904032712       -2.72308921742736
C           74.08489712328847        1.05070930689013       -3.34455728371613
C           73.14505855366970        0.82970081140092       -2.40139437130572
C           73.85445571008725        0.42488626568273       -1.20471039016316
N           75.18553596113455        0.41394304846519       -1.42146318650723
H           72.10004077695721       -0.76709841968176        2.51468536446482
H           73.97485001800315       -1.21201572079097        4.36737249700028
H           75.88144216608805       -0.06259348797999        0.78094226729121
H           77.81145973418829       -2.85715818581780        4.57430120713970
H           77.83146662092093       -3.41103734569502        6.97663404066573
H           77.40034275462568       -2.62464987519316        9.19529787440596
H           76.48198407536422       -1.24525577224093        9.51805098740803
H           75.51540464006420        0.10652601214792        7.80070333914017
H           75.50552089552420        0.65848330263868        5.39861435570911
H           79.30072228342702       -0.71023269236911        4.47284835948399
H           81.17026264488402       -0.28771421721096        2.58662133031762
H           81.14393854629120        0.45535292229603       -2.63555089425641
H           79.26894530494371        0.87114602518974       -4.49470240032141
H           77.36253333650957        0.31064231334401       -0.77030793242189
H           77.73839124663684        2.98748260976711       -4.62496298672523
H           77.72840558366282        3.51531997409552       -7.03247315221925
H           75.84071939252759        1.64436823180336       -9.46062216125491
H           76.76141733941327        3.02801397816784       -9.16379635429939
H           75.40266098478730       -0.01074983711071       -7.79018473108797
H           75.42181594574542       -0.53638726496742       -5.38149727794369
H           73.94491404461152        1.38717935167542       -4.35912745582759
H           72.07441886685515        0.93192653721237       -2.48027637566897
C           86.65015892418721        0.09320260544547        0.00791790539317
C           87.27176949520513       -0.20417936074037        1.23698189173148
C           86.61707596433591       -0.53672130657434        2.45019283130423
C           87.57723902402884       -0.73760220273098        3.40487251091886
C           88.84624196527227       -0.52274876337213        2.80301261477102
N           88.61086712793053       -0.21311557667488        1.48965498315346
C           90.10285166737563       -0.62019737183497        3.41550111389452
C           90.11043866326690       -0.92442150036441        4.86605582213923
C           90.74772493127982       -2.07023274654790        5.34899096102141
C           90.75523266287033       -2.36136347778204        6.70132881531822
C           90.13469228185343       -1.49807741064532        7.60801475966244
N           90.10780710653768       -1.80515053978155        8.95739715726883
C           89.49080849806261       -0.35267799385909        7.13293293481448
C           89.47932508404877       -0.07436399512791        5.77765661738476
C           91.32996772325758       -0.45521005574548        2.76969993797583
C           92.61241707137792       -0.49272749342555        3.44851539030150
C           93.55392648797404       -0.30562622956513        2.49978301025971
N           91.51298727036124       -0.22527717667891        1.43960852874526
C           92.84477125589009       -0.14307405685315        1.24686987833852
C           93.50575646532313        0.06172421379769        0.01825597372543
C           92.88357605475721        0.27588573885831       -1.22776792036520
C           93.53722289427068        0.44066362351842       -2.47542499587514
C           92.57684211209516        0.63997271754608       -3.43023957250604
C           91.30895655835600        0.61335851801989       -2.78956119270062
N           91.54486490729053        0.37846416989567       -1.46091696833241
C           90.05287288235425        0.78060189287352       -3.38782591468596
C           90.04594343111748        1.07361408303572       -4.84079306164317
C           90.68723868098840        2.20835748783032       -5.34366442842806
C           90.67836697303829        2.48656532056585       -6.69900082348550
C           90.02726849728217        1.62645868028377       -7.58696610058820
N           90.05785773060045        1.87448636850351       -8.94832807296061
C           89.39567294944874        0.48183755201852       -7.09361696850102
C           89.40033729871142        0.21681165272855       -5.73590304938877
C           88.82627526084512        0.69173588952265       -2.72656260305383
C           87.54503735514368        0.93954837864662       -3.36195627578396
C           86.60342019364941        0.74383678367491       -2.41502582005000
C           87.31160713866853        0.38898980186456       -1.20186005339337
N           88.64284253969855        0.37781404814077       -1.41373741516482
H           85.54845935216090       -0.61669153131701        2.56816363470334
H           87.42064924047220       -1.02143073756069        4.43269561412510
H           89.33541421714432       -0.02947808870192        0.80368280824571
H           91.22392289929337       -2.74960943311214        4.65060992371090
H           91.24379644048403       -3.25963965909449        7.06272457565451
H           90.83966096941037       -2.42432267763711        9.26738211952823
H           89.95238580729979       -1.02014697950748        9.56948441755122
H           89.00439334826905        0.31955171402648        7.83135894534643
H           88.99461028137752        0.82739764454877        5.41949945874059
H           92.75272870712597       -0.62685037921457        4.50889570419046
H           94.62566812159308       -0.26755385000421        2.61300985672864
H           94.60520904733832        0.40287202015742       -2.61768393357872
H           92.73231682282818        0.78119665583423       -4.48730561303368
H           90.82090583343081        0.28509104944527       -0.75634401284862
H           91.17828715930047        2.89151001098125       -4.65914057570617
H           91.17288445523343        3.37513750782898       -7.07605380436668
H           89.32213536677055        1.43446811809361       -9.47766145446248
H           90.22333635549739        2.83522039076794       -9.20261034615773
H           88.90107470749106       -0.19698055275592       -7.77974743317553
H           88.91540273733320       -0.67801045264061       -5.36152286187844
H           87.40592164526755        1.23862419070795       -4.38826982748493
H           85.53235713625848        0.83475854563963       -2.50146725569311
C          100.10803104228648        0.05990934536386        0.02726943567774
C          100.73012230883749       -0.25338604308503        1.25204035828961
C          100.07532145031178       -0.59662396168015        2.46237059845012
C          101.03574523909955       -0.81899629466683        3.41183870441906
C          102.30536132748338       -0.60716544402709        2.80989394242755
N          102.06961533909944       -0.27635311811783        1.50168033627222
C          103.56229400998700       -0.72779504536041        3.41697348753238
C          103.57069867207854       -1.06057497785450        4.86148110690621
C          104.19235212349567       -2.22510723748294        5.31917948291585
C          104.19923534942846       -2.54368791394644        6.66536752101808
C          103.59405741133223       -1.68990770260528        7.59122056262312
N          103.56542119370843       -2.02426395600128        8.93410341073355
C          102.96662440922803       -0.52536724734586        7.14140544864678
C          102.95539727604152       -0.21958509402393        5.79201807526196
C          104.78935789138362       -0.56067317962573        2.77118814584004
C          106.07317139611179       -0.62498857179940        3.44561732832226
C          107.01369438691098       -0.41933533726480        2.49985039936515
N          104.97063847068146       -0.29916499782414        1.44711437642920
C          106.30281515183601       -0.21914197947356        1.25324985227742
C          106.96179156814674        0.02270750062121        0.03109230880557
C          106.33963874172251        0.27108935633727       -1.20811499513404
C          106.99376789489715        0.46727525004390       -2.45123221942126
C          106.03334855259472        0.67736151722494       -3.40345728043204
C          104.76464613764138        0.62724589723482       -2.76558716287551
N          105.00044889618729        0.36950333149388       -1.44120789713092
C          103.50779712610988        0.79114787422973       -3.36288930082967
C          103.49810696421724        1.09845038840776       -4.81303131574421
C          104.12649935686755        2.24460653463491       -5.30602516187541
C          104.11327549308142        2.53491092301092       -6.65885404942387
C          103.47061954931233        1.67598243173173       -7.55407519643644
N          103.49640917400204        1.93723963981497       -8.91311446204216
C          102.85241987087028        0.51987015813914       -7.07070493026905
C          102.86138026231335        0.24264987218632       -5.71545743083824
C          102.28166061446679        0.68600279179275       -2.70312933465576
C          100.99934648461978        0.93430370218117       -3.33626072830854
C          100.05874161385248        0.72827335004447       -2.39060585256776
C          100.76845537947609        0.36526130499783       -1.18065421953212
N          102.09961074033217        0.35924960462535       -1.39327454709936
H           99.00631663202836       -0.66904159820661        2.58172683159644
H          100.87908725324885       -1.11538026609714        4.43610803175951
H          102.79434273871099       -0.08907654320339        0.81686463327206
H          104.65662328932871       -2.89712687551381        4.60580162373165
H          104.67526795293091       -3.45632771633664        7.00697368366641
H          104.28852389648897       -2.66057335512644        9.22960821792192
H          103.42347386998811       -1.24975093045134        9.56263667332367
H          102.49257253263806        0.13993497531570        7.85481423967907
H          102.48316177456189        0.69633808930588        5.45369010700223
H          106.21487616708306       -0.78801785805738        4.50176842759191
H          108.08592751226000       -0.39105522721126        2.61128570692787
H          108.06220738638068        0.44072950347196       -2.59258150768509
H          106.18933223136365        0.84076013159511       -4.45724878190675
H          104.27595520932772        0.25558052320338       -0.74021074571694
H          104.61064780142971        2.92699014933938       -4.61583670482970
H          104.59755348738696        3.43229776077539       -7.02829734375736
H          102.76497403688924        1.49370279760140       -9.44546065465545
H          103.64989139516402        2.90234838092655       -9.15824457414436
H          102.36461808580674       -0.15814392668139       -7.76248258926682
H          102.38659419524491       -0.66078393001337       -5.34877066406676
H          100.85902717417977        1.24112710078180       -4.36012055191030
H           98.98739037745335        0.81660419754039       -2.47603927298156
