156
 energy: -238.043148834004 gnorm: 0.000716719168 xtb: 6.5.1 (b24c23e)
Zn          13.19759041646469        0.03398564889698        0.01316972819863
C            9.77821760659796        0.11909526549927       -0.05062903112442
C           10.41918783461775        1.25096536321825        0.44003822363171
C            9.76135652950647        2.43631412777293        0.91675300865747
C           10.73228587135716        3.30336762458176        1.29972659179000
C           11.99515370306510        2.65714179368351        1.06049232556692
N           11.77062731096279        1.41568162036621        0.54192246991122
C           13.24980684728304        3.21639322498733        1.31857106962887
C           13.27285867958878        4.59916591765476        1.87982593042819
C           13.23410140084096        5.70074083110442        1.02039956338437
C           13.17119993396646        5.48867149221422       -0.46896965835175
C           13.25290696704947        6.98437963248586        1.55296181017146
C           13.30871368846123        7.18630479667988        2.92826646770933
C           13.34784846068824        8.58134424893506        3.49157234048907
C           13.34918437102774        6.08290550804967        3.77434830078661
C           13.33163137052249        4.79052167808346        3.26298803702472
C           13.37560824848792        3.59990978652595        4.18361219703033
C           14.48320021264241        2.60102619431614        1.09685171059203
C           15.76224757336078        3.19691521887448        1.36635145166371
C           16.70747219194742        2.28635514675152        1.01855220802019
N           14.67493430357365        1.34292123920512        0.59054588609839
C           16.01589258909691        1.12747255411116        0.53278078889138
C           16.64273459877662       -0.04810203258305        0.06904691507747
C           15.97714502181074       -1.19564595024888       -0.40971123249105
C           16.62817603012300       -2.38844261814478       -0.86852217405005
C           15.65243867335269       -3.25383450557660       -1.24660958219473
C           14.39510055634351       -2.59540157277881       -1.02416206879136
N           14.62998399338248       -1.34693107821544       -0.51217940283752
C           13.14134886420943       -3.14716218707926       -1.29441863790282
C           13.11248079386431       -4.52915985478178       -1.85753295687211
C           13.20693788713582       -4.72306663636251       -3.23904952750418
C           13.34325160396087       -3.53592541646584       -4.15507992022965
C           13.17332995538717       -6.01377033015104       -3.75150956455035
C           13.04725072499191       -7.11468422647823       -2.90860772932346
C           13.00492080633806       -8.50344146700271       -3.48720402056589
C           12.95403875258319       -6.91045858164327       -1.53692430669408
C           12.98512424243616       -5.62678002148829       -1.00271317262546
C           12.87914105974538       -5.41190672717385        0.48378307845986
C           11.90755102651522       -2.52466758485612       -1.08441909102397
C           10.62415954258581       -3.10603905295118       -1.37553480232104
C            9.68357513926911       -2.19261162324879       -1.02616099635861
C           10.38072097454617       -1.04284849949417       -0.51924587064032
N           11.72524468083339       -1.27476237247374       -0.56963080628369
H            8.69311751748121        0.14569837569343       -0.07094924188219
H            8.69194707805872        2.57532279812546        0.94961044795558
H           10.61522052800049        4.29362188647447        1.71086090602454
H           12.24051169722792        4.98607257961270       -0.74005647786355
H           13.99880779500895        4.85741901348096       -0.79773603239579
H           13.22153664901367        6.43843113924135       -1.00066331377740
H           13.22228346814567        7.83957804825673        0.88564972239391
H           12.91596992289446        8.60888974676967        4.49225120410772
H           14.38235898361638        8.92635003373864        3.55824278156275
H           12.80063373795578        9.27395612828575        2.85150821650634
H           13.39311139481374        6.23119905959600        4.84842438243278
H           14.28188254667559        3.01778982453101        4.00477158660712
H           13.36308041571092        3.91300683688386        5.22717736597778
H           12.51936539940728        2.94762161236513        4.00194298657573
H           15.90933283362795        4.18683892790257        1.76803386567009
H           17.77971036091742        2.38293904949753        1.08206858173127
H           17.69616217347964       -2.53676097859234       -0.89327524274967
H           15.76508976439717       -4.25149380582114       -1.64029556519754
H           12.52024597616240       -2.83686603609163       -3.99515670310426
H           13.34159966069712       -3.84678684577462       -5.19939636548391
H           14.27548777138891       -3.00578040051357       -3.95015171551875
H           13.24568121822051       -6.16563888455788       -4.82359463209756
H           13.86723622140608       -8.67347648564189       -4.13405687415474
H           13.00564569008157       -9.25591565756161       -2.69874026765816
H           12.10298025557552       -8.63310251660975       -4.08890418122764
H           12.85563258171967       -7.76204619940481       -0.87160264313218
H           11.96543992403668       -4.86313239467852        0.72111331167435
H           13.72458014640133       -4.82292363102468        0.84398093379953
H           12.86178954293505       -6.36290816127132        1.01531041898069
H           10.47373442299554       -4.08765113619951       -1.79641347534337
H            8.61066695317054       -2.27777872199915       -1.10133548345168
Zn          31.83209059278909       -0.03548574480374       -0.01726507262888
C           35.25157405690878       -0.05349105556142       -0.11882161864598
C           34.61072928772612       -1.20977469328122       -0.54897027420566
C           35.26872704492708       -2.39544547845807       -1.02464472022665
C           34.29789436859738       -3.28616225647338       -1.34906830697127
C           33.03492055686838       -2.65387909611891       -1.07556295727665
N           33.25927621019189       -1.39886574454894       -0.59068625153450
C           31.78041327916351       -3.23632889611187       -1.27681606175665
C           31.75823931911386       -4.62281094271409       -1.82892223998458
C           31.79785118292012       -4.82258054543803       -3.21173535206579
C           31.86213959741072       -3.63839122976850       -4.13947181828199
C           31.77945652949761       -6.11747909299649       -3.71628831760801
C           31.72345804581367       -7.21545489914751       -2.86383130387214
C           31.68423735222202       -8.61197557711388       -3.42344698506779
C           31.68322776650753       -7.00517792998772       -1.48938057640118
C           31.70043013241200       -5.71862299744594       -0.96346056674871
C           31.65798263027253       -5.49716993984027        0.52523061552440
C           30.54683074743781       -2.63878175773854       -1.01154459411350
C           29.26784411723311       -3.25573709828893       -1.22893451992610
C           28.32249091268159       -2.35740792973517       -0.85094497182364
N           30.35489880815593       -1.37973825806976       -0.50758669456849
C           29.01389810022487       -1.18418631571823       -0.40061250465607
C           28.38690004729328       -0.01462629412457        0.07790490825045
C           29.05236883080179        1.14463662034480        0.52771076909391
C           28.40124144461645        2.32219713412419        1.02418346784552
C           29.37691387868990        3.20803818295746        1.35164207514846
C           30.63426924288764        2.57947375614411        1.05523343414796
N           30.39949426929013        1.32479661248437        0.55864520162754
C           31.88787693068382        3.16476189829856        1.24282342932139
C           31.91603313671013        4.55170911065978        1.79362737475704
C           31.82103383370412        5.64812387927566        0.93108220352091
C           31.68328333938135        5.42572498044820       -0.55166860534093
C           31.85466079381140        6.93422115425115        1.45496329341362
C           31.98093099112774        7.14495703653870        2.82538710353321
C           32.02381460684418        8.54761719202020        3.36936113760373
C           32.07355465369650        6.04788912729623        3.67378171840516
C           32.04251931529136        4.75178709666504        3.17044535131261
C           32.14679274035238        3.56744252572584        4.09432064077779
C           33.12185512128592        2.57030742348647        0.96392913129101
C           34.40522475011111        3.19085485452756        1.15808705727565
C           35.34595485003827        2.28966790199100        0.77858943248559
C           34.64891861383074        1.10948818149251        0.34704049686918
N           33.30431888947737        1.31215795042909        0.46965957692198
H           36.33670606187351       -0.05896727450330       -0.15077880459722
H           36.33816587591134       -2.51882740933249       -1.09613654474353
H           34.41510357543041       -4.28555269419039       -1.73742162599164
H           32.79310501415828       -3.08875149368451       -3.98620912788598
H           31.03487726397780       -2.95467577558500       -3.94039218379415
H           31.81261492835332       -3.95551391414308       -5.18074123703260
H           31.81067080592041       -6.27245641322295       -4.78988687801465
H           32.11516193393690       -9.32500178801842       -2.72022038547660
H           30.64975368418688       -8.90654859974745       -3.61517081910682
H           32.23222823487784       -8.66868723934382       -4.36436814528846
H           31.63990208130172       -7.85588234988747       -0.81707698952453
H           30.75185494982099       -4.95375736695641        0.80053433328539
H           31.67171307958798       -6.44569666706079        1.06126742702353
H           32.51442180455509       -4.90043403783016        0.84472070270711
H           29.12091175548808       -4.24888212356911       -1.62266661143771
H           27.25024792549280       -2.47113051867490       -0.87185276262182
H           27.33327545806047        2.44609389523609        1.10956709791346
H           29.26423814107971        4.19971337138817        1.76013818366823
H           32.50592556322888        4.81072939321264       -0.92128512219703
H           31.68401656108497        6.37306498274090       -1.08997696393093
H           30.75086395234222        4.90113445708745       -0.76968372158602
H           31.78202873451677        7.78608507985894        0.78660407752160
H           31.16232684839282        9.11886407569069        3.01946497026211
H           32.02207514009152        8.54475737226092        4.45926034949267
H           32.92652953957699        9.05695832685818        3.02579235328458
H           32.17138651543846        6.20169216896834        4.74350813453229
H           33.06015768239178        3.00628282655744        3.88651599795117
H           31.30083741524709        2.89388285631600        3.94555871148225
H           32.16332810731659        3.88557136865809        5.13631544029395
H           34.55556446680227        4.19030949250594        1.53467281921429
H           36.41890748716173        2.40268635997525        0.78484076818518
C           18.04716219109851       -0.07173047723101        0.08281595710570
C           19.27224123692757       -0.06963049031689        0.09170968483493
C           20.61490777872370       -0.06819800887264        0.09763578152065
C           21.84594206567885       -0.05676398406999        0.11023092646735
C           23.18384069876122       -0.04010578671092        0.11212322208294
C           24.41470010825726       -0.01925757661666        0.11500745890242
C           25.75735244109932       -0.01126548033472        0.11099257115900
C           26.98247830233263       -0.00664418256311        0.10404180153733
