240
 energy: -413.159342376643 gnorm: 0.000541765999 xtb: 6.5.1 (b24c23e)
Co          39.54287717845098       -0.01197792161941        0.11266680203350
C           36.18513285737453       -0.05165700849746        0.41041150981638
C           36.81889216188267       -1.21179104466884        0.01855125670326
C           36.13558298535007       -2.43180081503674       -0.28608003968473
C           37.08924564530312       -3.37074494305831       -0.48911506439907
C           38.35505119408572       -2.72575743999184       -0.29395698492060
N           38.17801603831215       -1.39032116579279       -0.03422565753671
C           39.55847363039010       -3.40718889347996       -0.17372914221310
C           40.74669260743474       -2.75416430887220        0.11449494023414
C           42.00085709692465       -3.41615975385762        0.31272366442262
C           42.94272291434567       -2.44831924542212        0.41685379259856
N           40.91956157155861       -1.38836665689194        0.12053072303652
C           42.26584376734895       -1.19990850072316        0.25787138767462
C           42.93373149613817        0.01471405122874        0.07887701673830
C           42.24512978453429        1.20892323428938       -0.15515236001971
C           42.89074881992683        2.44321173079922       -0.47189734698203
C           41.92312736679986        3.39115773379549       -0.50130098861836
C           40.69292154987013        2.73542169541040       -0.17282862765046
C           39.50718578683765        3.39757260066516        0.10316806568375
C           39.47693468693054        4.87821156107007        0.07294912826233
C           38.61221453632169        5.54663089020060       -0.79500929380078
C           38.58182603439359        6.93261486778025       -0.82426028939908
C           39.40719853954775        7.66696606423398        0.01656070349607
C           40.26600760360756        7.00924552300828        0.88669423251335
C           40.30411578388496        5.62333613024589        0.91449032298532
C           38.34681928841834        2.71049844227039        0.43910475691140
C           37.12879665216899        3.34201485134510        0.85409878018218
C           36.19934205451288        2.36397550999544        0.96811684334084
C           36.84920253254180        1.13817224604461        0.61638093809901
N           38.17929954599642        1.35345086154950        0.35241171647633
N           40.89660793245761        1.38036201000686       -0.02999402798027
C           39.56136265347891       -4.88414871251428       -0.31619155578163
C           39.29204611292469       -5.47218177359038       -1.55185443044631
C           39.29543524063930       -6.85277943762323       -1.68483989248593
C           39.56102981290829       -7.65931973754983       -0.58660133952826
C           39.82496389094297       -7.08019137275337        0.64709664226858
C           39.82757250865104       -5.69994339736845        0.78339668378515
H           35.10867375347031       -0.06909116142849        0.53386908402224
H           35.06306744464729       -2.53760280704290       -0.32547404555858
H           36.96184066511849       -4.41557526126423       -0.72169831650121
H           42.13442558456777       -4.48491633715312        0.35138236448812
H           44.00608761029751       -2.55405414451237        0.55961805397921
H           43.94859675588891        2.55277159333689       -0.64886411536513
H           42.02326776545036        4.44252530278169       -0.71633493720406
H           37.97438376889983        4.97414630659766       -1.45926395815640
H           37.91052894534356        7.44173309397528       -1.50692904420348
H           39.38022416731975        8.75051682573280       -0.00538337277388
H           40.90895971159254        7.57830485087112        1.54901499900198
H           40.96493299149133        5.11141840756065        1.60515433477814
H           37.01521768350651        4.39859115386095        1.03526622029256
H           35.16104599100149        2.44670962780149        1.24757494502669
H           39.09313276340604       -4.84234538648154       -2.41174947444308
H           39.09004960358111       -7.30068711342422       -2.65078830998013
H           39.56131245496572       -8.73831808406061       -0.69179657245880
H           40.02866884061486       -7.70610871215698        1.50884933278481
H           40.02149592071531       -5.24874989168349        1.75009497865245
Co          87.38737440142772        0.05848165341736        0.11724895824009
C           90.74873789907683        0.07935397583843        0.38031818858191
C           90.11305968871825        1.25659075222657        0.04711277946743
C           90.79544242529053        2.48813643729296       -0.20937081439598
C           89.84160609488249        3.43743141883300       -0.35547948988882
C           88.57679143739396        2.78626653607198       -0.17519224199320
N           88.75376153904703        1.43991964597400        0.01983459102272
C           87.37588202165303        3.46304424254152       -0.01120940821959
C           86.18883064630073        2.79888575619188        0.25520667846922
C           84.93703009489205        3.45287238453743        0.49150502510404
C           83.99371528761186        2.48287211970489        0.55356472672803
N           86.01339764941596        1.43453326032176        0.19772702905268
C           84.66733323609900        1.24225259781634        0.33187891003040
C           83.99582241696324        0.03890417921926        0.09824223611623
C           84.68097180168959       -1.14555348666890       -0.18884532063194
C           84.03200900676839       -2.36456492015763       -0.55406293604213
C           84.99761379518306       -3.31241566186465       -0.62461210022193
C           86.23012358252811       -2.67284729083843       -0.27370109994471
C           87.41584655510339       -3.34781325963123       -0.03030449187853
C           87.44171397947724       -4.82612950711149       -0.11984393323918
C           88.29853779025494       -5.46213768805599       -1.01934863174839
C           88.32338240574222       -6.84595118169026       -1.10441428047794
C           87.50034878774312       -7.61052942168454       -0.28864491103523
C           86.64940932761981       -6.98527395718919        0.61261849175082
C           86.61680234022707       -5.60150442130978        0.69624262556199
C           88.58008063334117       -2.67703575338836        0.32421497063193
C           89.80058530394369       -3.32703502398519        0.70178030012422
C           90.73416222550586       -2.35645541544762        0.84252656811833
C           90.08391764775307       -1.11636948831665        0.54585351060426
N           88.75033602662906       -1.31790012139591        0.28885994857312
N           86.02959257578912       -1.32455307464928       -0.07479225952347
C           87.37455342696649        4.94506728514044       -0.08395869135627
C           87.63447403096187        5.59048554615865       -1.29268567765446
C           87.63340644772406        6.97585311769408       -1.35996033115766
C           87.37937269885785        7.72990058850950       -0.22240158461618
C           87.12427099245991        7.09342664460839        0.98462367601946
C           87.11942796385485        5.70828338563830        1.05529110425222
H           91.82669668470119        0.08926374931726        0.49083645696275
H           91.86762582657741        2.59369281018663       -0.25750701039955
H           89.96867282639690        4.49183305886619       -0.54008810063769
H           84.80587883124839        4.51882697225323        0.58162295679159
H           82.93128805750840        2.58330863645945        0.70672687765432
H           82.97340228891304       -2.46500391255454       -0.73190549919904
H           84.89479594362572       -4.35393206381860       -0.88212938876846
H           88.93435450308188       -4.86577864784979       -1.66424777963177
H           88.98840386548977       -7.32964276831010       -1.81128595057311
H           87.52290918841213       -8.69240549843066       -0.35438643172057
H           86.00823726378994       -7.57816034546953        1.25546766757546
H           85.96201824856360       -5.11519394368426        1.41074178946889
H           89.91296363085813       -4.39006012549004        0.84115486472807
H           91.77524939024548       -2.45242608477160        1.10697601686242
H           87.82424707832217        5.00181528910530       -2.18327002414953
H           87.83161638353454        7.46868321180061       -2.30531607495146
H           87.38126748853237        8.81267898028663       -0.27620726100230
H           86.92943706092234        7.67813979879766        1.87682733862123
H           86.93239611010931        5.21200076440132        2.00102273034055
C           48.13177604171185        0.06133571456194        0.10595911697916
C           46.90220718097406        0.05359261400431        0.10688940429804
C           45.55982982508475        0.04449487779927        0.10189743940135
C           44.33516433584879        0.02987673141383        0.08983921362573
C           49.47391427934055        0.06713848183473        0.10173245000140
C           50.69897834970885        0.06879867178686        0.09585062505562
C           64.07956412676116        0.03457293764330        0.04993002619606
C           62.84974175671859        0.04057384820489        0.04774079020927
C           61.50768139803962        0.04531146255626        0.04721979217288
C           60.28238386511153        0.05168220184331        0.04558649712012
C           65.42161378103451        0.02999919782899        0.04955047759691
C           66.64688752768888        0.02450205468772        0.04962522521166
C           80.02717638090095        0.00811469118512        0.12243488819320
C           78.79762688499557        0.00232152592030        0.12039317349950
C           77.45546203786230        0.00069127312627        0.11510481466178
C           76.23038484143520        0.00017100769330        0.10520564036214
C           81.36958469145402        0.01504452307249        0.11813468503988
C           82.59432506841694        0.02720898502469        0.11060270259000
Co          55.49067685896424        0.06151304930070        0.06958474935731
C           52.09907771486760        0.06720452135794        0.08364056052687
C           52.78276133971139       -1.11518316004196        0.38745250494833
C           52.13790953347090       -2.33458866979623        0.75635068745588
C           53.09164842320074       -3.29857442870529        0.73785548481598
C           54.31300026529841       -2.66235703875862        0.34827018784690
N           54.12238297023504       -1.30839634338385        0.20440966631234
C           55.48210942018514       -3.33713133686058        0.02089063260495
C           56.65674280428698       -2.66237267037075       -0.28197907786196
C           57.88044523237237       -3.29818273585816       -0.66617528677357
C           58.84062583853532       -2.34109503079403       -0.64640012363584
N           56.85312372108370       -1.31121441188976       -0.11152317666331
C           58.19678822497190       -1.12425501397332       -0.26640615429180
C           58.88212959245578        0.05514989979868        0.04531719588888
C           58.20241766048650        1.23861317193426        0.35382844145409
C           58.85230884129506        2.45554238988920        0.72270936827092
C           57.89696432339109        3.41779924164676        0.73290161966996
C           56.66957049627656        2.78420072014239        0.35741204866671
C           55.49443740079681        3.46047728154479        0.05823915255231
C           55.49273552583328        4.94042040404417        0.06815296160813
C           54.61826029021001        5.63982478495458        0.90175033031337
C           54.62030340928152        7.02624341408552        0.91437056774244
C           55.48915833976075        7.73072597986789        0.09203507951715
C           56.35961983348497        7.04249253322938       -0.74225218237524
C           56.36529270718045        5.65597701820645       -0.75342335355508
C           54.31830945199778        2.78672524420524       -0.24446361010853
C           53.09159577495939        3.42444542786936       -0.61498315311343
C           52.13342277419926        2.46499996898890       -0.60194359925631
C           52.78114007867013        1.24595567636564       -0.23676952810184
N           54.12585454237682        1.43393113363309       -0.08840105335049
N           56.86008866278052        1.43169915068783        0.19468976170614
C           55.47268534685324       -4.81698334473733       -0.00489572873931
C           54.58847830211494       -5.50145194514767       -0.84051188312392
C           54.58230494569872       -6.88762243164321       -0.86918780098014
C           55.45196805542236       -7.60654427886461       -0.06032822402381
C           56.33115685594477       -6.93310131846908        0.77685969538646
C           56.34544400907198       -5.54684030939032        0.80366278829300
H           51.08870719996774       -2.42752578307671        0.98625046647680
H           52.98717114772188       -4.34722197616661        0.96399098660791
H           57.98227030933010       -4.34256260812291       -0.91227923402984
H           59.89300443176187       -2.43638504036266       -0.86029435561094
H           59.90528479930530        2.54762819143831        0.93508378667318
H           58.00433089882728        4.46385175718901        0.96938561790936
H           53.94888746004527        5.09110751948978        1.55489471201400
H           53.94071611765489        7.55902990145163        1.57018870945237
H           55.48786119286004        8.81475953611506        0.10138413826784
H           57.03780804945260        7.58818774360705       -1.38882190674118
H           57.03594154428594        5.12023093214291       -1.41593218258540
H           52.98643953168504        4.47125423761119       -0.84906455569801
H           51.07972134692597        2.56042619100502       -0.80915859570740
H           53.91783144824645       -4.94106270353448       -1.48232883125726
H           53.89573791769642       -7.40882290907512       -1.52701820870786
H           55.44426388904602       -8.69037406554815       -0.08211522523241
H           57.00927742036188       -7.49022635138596        1.41367129341504
H           57.02311644318883       -5.02265479172142        1.46827101420027
Co          71.43862477744889        0.01055847125066        0.07394334683762
C           68.04712758305155        0.01936824400154        0.04838098529587
C           68.72613180864997       -1.17664777878636        0.30568248144815
C           68.07569699899523       -2.40839163975983        0.62049580354036
C           69.03052239295326       -3.37067932913504        0.58750170011549
C           70.25822647424940       -2.72155196146705        0.24075847408790
N           70.06833904976246       -1.36319989792592        0.13763885406381
C           71.43333102382752       -3.38448428410058       -0.08703028636097
C           72.61029480478335       -2.69893701250345       -0.35775245130832
C           73.83758642261957       -3.32083539307311       -0.75243807139466
C           74.79625107831370       -2.36352206085518       -0.69528476769914
N           72.80311368740874       -1.35418494191696       -0.14278246680800
C           74.14821853992312       -1.16090886848209       -0.27954670671652
C           74.83027884882056        0.00302684379355        0.09136915289158
C           74.14659937549185        1.17216557740779        0.44252416151232
C           74.79119307654669        2.37527074366707        0.86181004471956
C           73.83799386505079        3.33981557317902        0.87991989450218
C           72.61716553429027        2.72052497409877        0.46238591021700
C           71.44882145821008        3.40861153173391        0.16045561975335
C           71.45960789525741        4.88821622522516        0.19301163052841
C           70.58371469270520        5.58691661107614        1.02539944633072
C           70.59977407116017        6.97314194856026        1.05336607221889
C           71.48411515668023        7.67787936716935        0.24796746108870
C           72.35694965608872        6.99019953002660       -0.58432699637488
C           72.34877594860903        5.60401796645260       -0.61057597003510
C           70.27401686873262        2.74700551352879       -0.16953781284535
C           69.05054168144146        3.39811490646811       -0.52809855898942
C           68.08980381082168        2.44157199153323       -0.54545820901638
C           68.73317063173317        1.21024654282953       -0.21450585782793
N           70.07699881167204        1.39014187500768       -0.05317671054481
N           72.80740228502839        1.37347104631705        0.26443848165657
C           71.43372582305412       -4.86351534994028       -0.14287497771168
C           70.56489239113368       -5.54053914849677       -1.00023936519315
C           70.56899950806218       -6.92618142385104       -1.05073199859279
C           71.43393923331121       -7.65198264838129       -0.24292935030894
C           72.29906299733356       -6.98595461135963        0.61459911886294
C           72.30287803649273       -5.60031906278340        0.66351760336245
H           67.02268344080262       -2.50935310250837        0.82860398138460
H           68.92275471754287       -4.42625066482026        0.77685075492032
H           73.94262928675198       -4.35665677531103       -1.03120587522916
H           75.85044285257209       -2.45056330904269       -0.90367078007130
H           75.83991809565221        2.45831385016389        1.09760491715130
H           73.94262859361373        4.37838379367978        1.14848717168212
H           69.90229786143206        5.03798521438894        1.66575898247766
H           69.91886388627628        7.50564043586499        1.70803400319724
H           71.49337151961679        8.76170746632374        0.26911422010315
H           73.04771770623323        7.53597295583266       -1.21737519807558
H           73.02180084999802        5.06852193845568       -1.27089448072990
H           68.94910820468965        4.45135958950718       -0.73311354298721
H           67.03739075205804        2.54574853811618       -0.75499558209094
H           69.89835092897124       -4.97481334537781       -1.64164492039151
H           69.89395898548092       -7.44172059269038       -1.72477515859574
H           71.43365354814746       -8.73537477614345       -0.28146635599298
H           72.97386049416127       -7.54828056307221        1.25035492713207
H           72.96929474613628       -5.08201172164683        1.34393478524558
