197
 energy: -368.049890018281 gnorm: 0.000341075186 xtb: 6.5.1 (b24c23e)
Zn          29.08721495323122        0.14031327402165       -0.39514607304601
C           25.69360267503030        0.10336593190056       -0.07122215651268
C           26.31184144333334        1.34325209801543        0.03512363667890
C           25.62991195397641        2.59045611821785        0.24182340363186
C           26.57865092088250        3.55815868909847        0.29237537372811
C           27.85423483875127        2.91174605470306        0.12802402319119
N           27.65607888017661        1.57227759400575       -0.03642377646110
C           29.09784859249133        3.55494757519254        0.11707527812692
C           29.10278848375673        5.02312249079923        0.33786009968509
C           28.62442841819255        5.56197659279708        1.52889676478958
C           28.63019098791451        6.94109044411553        1.73485448957857
C           28.10839477506321        7.45354411767321        3.02636929570357
O           28.16401363605650        8.78920395662191        3.13525614581878
O           27.67146768003531        6.75845362063821        3.90780590430413
C           29.11522567163555        7.79419389427940        0.74355240379345
C           29.59081180743672        7.26061686506247       -0.44394441403327
C           29.58687131677663        5.88777133697150       -0.64693830720323
C           30.33675926634152        2.93573141546822       -0.08130377967030
C           31.61243680775526        3.59552903213380       -0.03274568355144
C           32.55991851908922        2.65207890560802       -0.26693907275876
N           30.53491707782705        1.60369977045473       -0.32870987837533
C           31.87472883205790        1.40664301947409       -0.45175402335296
C           32.50819399545640        0.17697729663043       -0.72390905636466
C           31.86132073523656       -1.06600292975233       -0.87670761711063
C           32.52646658883540       -2.29823353669914       -1.18318019034349
C           31.57240636766622       -3.26263698989901       -1.23266128330228
C           30.31448840994755       -2.62890547105585       -0.94761636554008
N           30.52647163780937       -1.29102130302784       -0.74765918780860
C           29.07458694142293       -3.27558017624918       -0.90403664037299
C           29.06970621630076       -4.74616514158416       -1.11059519299764
C           29.74458288728755       -5.58761919691599       -0.22324793157497
C           29.73851773149423       -6.96318623366028       -0.40866245345243
C           29.06146625140024       -7.51619237876383       -1.48262110419785
C           28.38437046764157       -6.68613471616716       -2.37753444167555
C           27.67134422371431       -7.31670212491587       -3.51605537857232
O           27.04628975096913       -6.43699745998634       -4.31292084659036
O           27.64009591858620       -8.50244261960372       -3.72611294992292
C           28.38868613001613       -5.30529219100416       -2.18979571390464
C           27.83769835429658       -2.65889026511472       -0.67959360505513
C           26.56899278531339       -3.33344678200988       -0.59520056870813
C           25.62610968661885       -2.38588310360413       -0.36572832433410
C           26.30712926426612       -1.12325397816478       -0.29558144149121
N           27.64462267729897       -1.32276289302547       -0.48435189743182
H           24.61317131746897        0.09130044088343        0.03411850305924
H           24.56033848046690        2.70028670184802        0.32884225575926
H           26.43165325756565        4.61866034925388        0.41992661740990
H           28.25625331923931        4.91352564243581        2.31643376669186
H           27.80757744805664        9.04254739405651        4.00218212144622
H           29.11760509560612        8.86540983569947        0.90446740734156
H           29.96645435357447        7.91779755845584       -1.22013660863352
H           29.94872895943771        5.47826081973450       -1.58350944242485
H           31.76378374811477        4.64364912110165        0.16956110579691
H           33.63003291577687        2.77971126960296       -0.30499784807710
H           33.58741594885291       -2.40297459442992       -1.34550713585869
H           31.70538315269019       -4.30915627733381       -1.45518022351842
H           30.26443065036523       -5.15767538243411        0.62567378189916
H           30.26346203895282       -7.60345394687695        0.29112253636214
H           29.04644382233920       -8.58838224208396       -1.64241826427425
H           26.60782040006865       -6.92699418791160       -5.02732047711046
H           27.87348525202673       -4.66237705253951       -2.89366898493649
H           26.42392564102874       -4.39775055165928       -0.68932096898269
H           24.56248856533055       -2.51931726203779       -0.24493440306349
Zn          61.13313045969880        0.16926666154854       -0.27722338786523
C           64.54198933565868        0.10188283640030       -0.31020719481623
C           63.89613502547925       -1.10372018238194       -0.55554512528221
C           64.55349938803919       -2.34705976682375       -0.84706783174757
C           63.58305091676863       -3.27863456153073       -1.01852382305074
C           62.31940790711483       -2.61730710867688       -0.82310830021360
N           62.54455614423558       -1.29885064224690       -0.55593128256717
C           61.06011432090416       -3.22298378311182       -0.91625216970335
C           61.03175258648149       -4.68178579421238       -1.18911381037401
C           61.62380010756919       -5.57906122669568       -0.30440823717785
C           61.60296146792166       -6.94877271397996       -0.56463206372240
C           62.25536548344628       -7.85270524374380        0.41526525767160
O           62.18020602298621       -9.14960337752206        0.08144469064086
O           62.80858613542443       -7.48262591241564        1.41925998402337
C           60.98555613270381       -7.43209065588283       -1.71831043733899
C           60.39484985554308       -6.54143404303456       -2.60082179996403
C           60.41645047884391       -5.17836588195808       -2.34100936694689
C           59.82832966828527       -2.57306349589743       -0.77948415603542
C           58.54128140959677       -3.21015659286914       -0.83211985865115
C           57.60701732448756       -2.23905960193589       -0.66753980775809
N           59.65133846289329       -1.23278713228173       -0.56190383988482
C           58.31253074975940       -1.00288263588394       -0.49873485746465
C           57.69686797912150        0.24992262915927       -0.30111343058620
C           58.36682975484938        1.46889013695333       -0.07249239940767
C           57.71696088830141        2.73235045073846        0.11817201877509
C           58.69295086457569        3.65509263821814        0.31485463820689
C           59.95000353919821        2.96184903012244        0.25064030477315
N           59.71404796134485        1.63528280566765        0.00700871416498
C           61.20868040220991        3.55752767503706        0.38332679584310
C           61.24110268969073        5.01389139547136        0.67351233418119
C           60.69968781812604        5.51184128031267        1.86061797440175
C           60.73182787384524        6.87172460325116        2.13712858559738
C           61.29987169166646        7.75142905930072        1.23098199342566
C           61.84142223224226        7.26651268512292        0.03940001399136
C           62.43651665354415        8.24128262350748       -0.90827785822629
O           62.92753940644229        7.67740931830383       -2.02203731553710
O           62.48659869326008        9.42984995846558       -0.71911233529209
C           61.81331980663082        5.90071623696015       -0.23576816115663
C           62.44058077874202        2.90401074303777        0.26098721767500
C           63.73269377667940        3.51549042151397        0.42874016396467
C           64.66218325249207        2.54782939871938        0.23061227570753
C           63.95040464511245        1.33198969989031       -0.04917444910805
N           62.60807592202642        1.57954361449200       -0.01867890836673
H           65.62731772702436        0.08007772065302       -0.32233507979834
H           65.62209836803858       -2.47709889669091       -0.91636909278873
H           63.70746589176464       -4.32043670067161       -1.26680590267454
H           62.09567051431274       -5.22331700150682        0.60502024394478
H           62.62858101484264       -9.67040049004838        0.76740163620292
H           60.97145947680664       -8.49631924493441       -1.91985076694527
H           59.91588143380039       -6.90949566108484       -3.50115258907394
H           59.96626039088238       -4.48664658755881       -3.04432281997277
H           58.37447109775925       -4.26715819296610       -0.96371791789084
H           56.53396064768913       -2.34481343252105       -0.64993647048422
H           56.64989151628730        2.88682961015603        0.09790181534441
H           58.57478072818651        4.71459313265145        0.47586173474343
H           60.26405652414731        4.82323786841571        2.57603489842972
H           60.31222968639771        7.24288603247734        3.06524089558449
H           61.33219411824259        8.81656845759117        1.43044850739577
H           63.29433063401781        8.37814624608315       -2.58522071855869
H           62.22384167637529        5.52786508959870       -1.16671462295757
H           63.90175753444505        4.55133376036946        0.67600080588285
H           65.73639802560575        2.63607633334388        0.27493233212904
C           37.69671684313715        0.27554107884989       -1.07804006800736
C           36.47010396322074        0.24280518503943       -1.01682741957452
C           35.12879700211816        0.21482509382317       -0.93375347291928
C           33.90822025490495        0.19277521500617       -0.84327797795619
C           39.03956654146403        0.30963196487649       -1.12359775834481
C           40.26310835534662        0.34396535731773       -1.14869076401319
C           53.72924091303419        0.36113957616678       -0.48325906634122
C           52.50383923510948        0.39305887184275       -0.56597409819001
C           51.16332380939225        0.41898675244500       -0.66088986389684
C           49.94263664819686        0.43764823721490       -0.75344829597220
C           55.07073908583514        0.32443684481920       -0.40585894602869
C           56.29278177138967        0.28781523339628       -0.34358609807211
Zn          45.10612723648350        0.42806327815168       -1.04520339990606
C           41.66727340922471        0.37855457095148       -1.14826823003721
C           42.34157035640559       -0.76783506663110       -1.61561042712862
C           41.69629043646145       -1.92736111540405       -2.15666172975163
C           42.67566223832599       -2.80234052338415       -2.50035845862296
C           43.92891056093091       -2.19054903372362       -2.15604288752166
N           43.68907587423131       -0.94830436009771       -1.63228600927966
C           45.19028972681710       -2.76748024787318       -2.33732959688279
C           45.23193002047503       -4.13418016460731       -2.91701437577659
C           44.64052768783049       -5.20683826827545       -2.25610154854503
C           44.68011911335049       -6.48674319281861       -2.80828917225685
C           44.03157975143309       -7.58950661117951       -2.05549376370767
O           44.12653151148075       -8.78150347983907       -2.66292808800183
O           43.46685877379077       -7.45308963873218       -1.00041234908272
C           45.31336706505018       -6.70125208473835       -4.03243797708404
C           45.90341548145481       -5.63486406088240       -4.69250706665732
C           45.86570355917778       -4.36201279363450       -4.14102262446977
C           46.41839928537073       -2.17653414634866       -2.02011575236519
C           47.70016637591922       -2.81361434270720       -2.13742632987955
C           48.63082021278187       -1.91981504700587       -1.71469082674241
N           46.59268793053354       -0.91402298415287       -1.52030445757146
C           47.92718287036245       -0.73142947980008       -1.33289325529614
C           48.54160758392399        0.44383114002215       -0.85396692779264
C           47.87055401370577        1.62389984421190       -0.47336798376006
C           48.51993801622916        2.82789971057605       -0.04662587410700
C           47.54305863701662        3.73112650755017        0.22425846009815
C           46.28621770627844        3.08059675995360       -0.02101911884237
N           46.52293265932100        1.80350101947383       -0.45484251899077
C           45.02549270216358        3.66359863837910        0.14473031317303
C           44.98680791760660        5.06392427535988        0.63910629030693
C           44.44507965211707        6.07666599529128       -0.15561150599851
C           44.40806954665429        7.38823198831223        0.29710548351089
C           44.90699006484737        7.70456974193927        1.54954461919022
C           45.44785497971780        6.70091442863300        2.35468581511473
C           45.96838312270567        7.08004964248683        3.69203781245284
O           46.46824136376483        6.04762193319410        4.38677316763088
O           45.95538860175092        8.20077381353761        4.13332525595533
C           45.48849197600054        5.38477730725842        1.89843232656509
C           43.79479726429247        3.04771387919684       -0.10776282774890
C           42.50754517455893        3.63340482012858        0.14244414535991
C           41.57423685968528        2.71246046263551       -0.21029192371919
C           42.28152186039415        1.55665038907433       -0.67624788089077
N           43.62031528590051        1.78202011228127       -0.59948251772253
H           40.63006471933633       -2.04556217564263       -2.26612097838900
H           42.56041917062694       -3.77336496572897       -2.95413892565185
H           44.15534321948167       -5.06173408466832       -1.29706983666820
H           43.67993022141783       -9.44446318961703       -2.11170773265135
H           45.34109139036821       -7.69575997692163       -4.46090700995712
H           46.39533391230982       -5.79362968761327       -5.64552810003721
H           46.31864755022512       -3.52985226290186       -4.66845168820488
H           47.86484251397427       -3.82130174060975       -2.48357803704418
H           49.69999371064652       -2.04895592643849       -1.65974031451851
H           49.58764908282846        2.96102809192506        0.02507810848444
H           47.66248152790352        4.75088599935872        0.55302650461028
H           44.06368197020683        5.83229209624778       -1.14082094290710
H           43.98873396331076        8.16417696595332       -0.33320365736964
H           44.88524579108179        8.72346867559956        1.91932914333571
H           46.78441296684372        6.37746632406949        5.24353987120737
H           45.89719695633293        4.60551699567650        2.53077717163921
H           42.34032635101315        4.61716666424958        0.55060878520949
H           40.50070314516436        2.79995333933962       -0.15838866025695
