195
 energy: -398.459899418680 gnorm: 0.000552365292 xtb: 6.5.1 (b24c23e)
Ni          36.62415808491675        0.05927665417589        0.02181174612672
C           33.24219288159790        0.18452584596836        0.06767012247240
C           33.89043923986891       -0.28056182378393        1.19352350081648
C           33.21735336545916       -0.75675636125863        2.36361585629997
C           34.17390949854514       -1.00650409207105        3.28821432397534
C           35.43080425454021       -0.66313080569162        2.68853532248405
N           35.24926729099381       -0.26916414751627        1.38653651080283
C           36.64360955397096       -0.64822388105315        3.36598444576235
C           36.66218110327261       -0.97861307265055        4.80963716282729
C           35.93349632850310       -0.21162994125713        5.72216003438533
C           35.95422887250286       -0.51831136389535        7.07283768848788
C           36.70616043936702       -1.60160764688853        7.49758568281142
S           36.74443080446816       -1.99015414083662        9.20693814665569
O           36.42135793383822       -0.84019412705735        9.99908709390311
O           35.47587068914589       -3.00327799111078        9.24500391818033
O           37.92480836392511       -2.73502018678572        9.53227380148386
C           37.44088550861421       -2.37949485096105        6.61754928218610
C           37.41669065188087       -2.06105823308705        5.26989972507264
C           37.84476754810391       -0.32956373857138        2.74309550250585
C           39.09737136878192       -0.20916948354894        3.42648323748749
C           40.04329489381644       -0.00920230446658        2.47721990982261
N           38.01682800772610       -0.15128944096418        1.39095700260488
C           39.36736865805580       -0.00481270990196        1.21851229287332
C           40.02515184087655       -0.00354960044682       -0.01212633900091
C           39.34383440082303        0.00596900634649       -1.22992373058755
C           39.99325906043751       -0.03768862508352       -2.50162417095323
C           39.03404255521230        0.16950400093947       -3.43604832405497
C           37.80141154864226        0.34997367975081       -2.72989338818371
N           37.99564771206310        0.19297637870901       -1.37788664650196
C           36.60378486744877        0.71703430537565       -3.33214861184234
C           36.60493374750813        1.02281224609834       -4.78153133526213
C           35.81377200064186        0.28387523733283       -5.66430248947595
C           35.81420246033799        0.57333485290624       -7.01913638141114
C           36.60998318401903        1.61036260562957       -7.47772989015490
S           36.60296784347204        1.99571247420636       -9.18827225249516
O           36.94056866534832        3.37198368977393       -9.40623896315977
O           37.87858478461775        1.09830171593725       -9.64092958512847
O           35.42744587215135        1.47030040003179       -9.81590837563607
C           37.40097484171671        2.36464399520015       -6.62605331134167
C           37.39732863948365        2.06307775541924       -5.27453828985435
C           35.41244092749555        0.82299917214521       -2.62538691698348
C           34.16790446912233        1.24812757310828       -3.19777553225543
C           33.22360987315191        1.09563146385888       -2.24013027649690
C           33.89228615568866        0.58968492628697       -1.07988858546262
N           35.23997507721800        0.46867939260501       -1.31098256700399
H           32.15957130587242        0.22829082134800        0.08350810954603
H           32.14924762923690       -0.87849158336425        2.44708854615190
H           34.05222287982684       -1.38810755236579        4.28891418599807
H           35.36298604510751        0.64026176207627        5.37106253002782
H           35.40244168206043        0.07607292384330        7.79019202710684
H           35.32145498058865       -3.31335343313097       10.14564634276748
H           38.02267260283623       -3.21549517896291        6.98495990182263
H           37.97641575395536       -2.66249936146413        4.56310986289766
H           39.22607539767170       -0.26587089865068        4.49501162860261
H           41.10667918421010        0.11629204323144        2.60265098341254
H           41.04918813246007       -0.20128007777797       -2.64523722207199
H           39.14126956608694        0.19691885883657       -4.50813643157275
H           35.20627340610383       -0.53022021892023       -5.28656898603617
H           35.20488868264408        0.00751987679420       -7.71264439201927
H           38.14922455398347        1.33198066184860      -10.53723466387685
H           38.00136269349390        3.17657160908242       -7.01686460348042
H           37.99945810278308        2.64801570319255       -4.58908549626688
H           34.04614577098577        1.61569246421099       -4.20369518302486
H           32.16618140924566        1.29898600967267       -2.29585195269144
Ni          58.31928568865410        0.04966315960634       -0.02076019475071
C           61.70815006046818        0.19372465477524       -0.02390002833460
C           61.05842471676790        0.20645832750817       -1.24026092807473
C           61.73809330935213        0.24310087937830       -2.49942654477534
C           60.78263098084761        0.32390237870504       -3.45404640335536
C           59.51934336791683        0.35246299361389       -2.77530906094414
N           59.69798906710202        0.24277468632586       -1.41912740963422
C           58.29847745048204        0.51582275306601       -3.41643872420368
C           58.28585675344138        0.71609660388388       -4.88494263159073
C           58.91345106494436        1.82947785553434       -5.44903121677713
C           58.89821009122905        2.02557145708285       -6.82019105731137
C           58.25399581636863        1.09394787504496       -7.61785658739848
S           58.22429344659792        1.33973092640007       -9.35364048829466
O           58.41799453094460        2.72277491995595       -9.67536919012874
O           59.58486749145179        0.53497173410267       -9.72605589702964
O           57.11874384764422        0.64770785758741       -9.94812354933392
C           57.62164542302460       -0.01901732257721       -7.08795158982522
C           57.63921592661934       -0.20284723843333       -5.71515575998440
C           57.08657618988424        0.51156325426599       -2.73764597642070
C           55.82137539461736        0.74998544388568       -3.36569901672558
C           54.87586222716084        0.60549047132829       -2.40747917859918
N           56.91961685551234        0.25917251227539       -1.39660121932206
C           55.56474383249967        0.28509732678013       -1.19687770214525
C           54.91207495613091       -0.02641589304185       -0.00654263163326
C           55.58773086962398       -0.32837390847858        1.17345552027378
C           54.92493242276985       -0.70543092338668        2.38215858993963
C           55.88598592444448       -0.83896199489679        3.32658531699548
C           57.13305673840601       -0.52853096348556        2.69391854932394
N           56.94231818485547       -0.25249296679989        1.36056831211454
C           58.34709051345555       -0.47338497268392        3.36610731176795
C           58.35605168812007       -0.70076080127290        4.83104671630623
C           59.05038198256018       -1.78521798865391        5.37207499717770
C           59.05777994654827       -2.00297646213487        6.74018683687398
C           58.36798219839365       -1.12244741307333        7.55744865519941
S           58.38649091431999       -1.38176675360151        9.29153457056824
O           58.16449401086973       -0.15360388184281        9.99717132123356
O           57.03452295382701       -2.27337622574566        9.41506436359818
O           59.50531585090941       -2.19463723444633        9.66532374504870
C           57.67677192230170       -0.03374383411154        7.05083575777463
C           57.67124523457885        0.17124407322941        5.68104998146425
C           59.54929542924515       -0.20454343949245        2.72570112219347
C           60.80736003763950       -0.08214763718398        3.40358994757460
C           61.74837390674515        0.10986305353135        2.45059042668905
C           61.06460616822893        0.11202709017053        1.19296186245863
N           59.71335696113773       -0.05002982613633        1.37213072972259
H           62.79064877379506        0.24394223934952       -0.02472308076198
H           62.80936988537910        0.20747803105987       -2.61648304336689
H           60.90804932570728        0.35831587791287       -4.52401266168906
H           59.40068264415898        2.55286065031735       -4.80575819756061
H           59.37157607199625        2.89070071868867       -7.26720839648906
H           59.72968138735649        0.54413209325870      -10.68001358719297
H           57.12238752966464       -0.72388377091253       -7.74085192608912
H           57.15860850466392       -1.07157134419260       -5.28059419918609
H           55.68510282618774        1.00285841801853       -4.40438383318951
H           53.80580565358492        0.70159705340468       -2.49596233473997
H           53.86067325263122       -0.84838545380646        2.47745824095922
H           55.77196301003668       -1.12527714248658        4.35929396418120
H           59.57591236045691       -2.46708126013757        4.71378159698739
H           59.59214090496847       -2.84037004064893        7.17095634489383
H           56.78226183744589       -2.36788124300040       10.34170826185473
H           57.15921394600990        0.64204459499552        7.72005216425884
H           57.14562966983382        1.02249396685518        5.26438204965696
H           60.93817163111810       -0.13285582758535        4.47226696819242
H           62.81246736361442        0.23889159156169        2.56740176353637
C           41.43661136093122       -0.01575729860039       -0.02411822674112
C           42.65139764406325       -0.01935617287024       -0.02694441259240
C           52.28207158167059       -0.04037776677810        0.00815365340472
C           53.49572491949364       -0.03943437627184        0.00251501902346
Ni          47.46499078655685       -0.02660102284279       -0.01423465147208
C           44.06266714231485       -0.02083672343005       -0.02674959930691
C           44.73259697819694        0.87731619197680        0.80559533743125
C           44.07108794574192        1.79086150608547        1.68260656829023
C           45.02342238104129        2.62375111783949        2.16812610220487
C           46.26454710034999        2.21971063058942        1.57980024657482
N           46.08127719176136        1.11125715867806        0.78708243869760
C           47.46167825911920        2.90987571494370        1.72634001210099
C           47.45547555589472        4.19313587538845        2.46565524924775
C           48.23952289248415        4.35297377958843        3.61090633942673
C           48.23929049989198        5.55393425084212        4.30113100420832
C           47.45007834102350        6.59094817226357        3.83126151967355
S           47.45865081272953        8.11991704621437        4.68998208303754
O           47.11891456669095        9.20345331183003        3.81480378449102
O           46.18595702975307        7.85367369483642        5.66248369084123
O           48.63640847282964        8.23372028262124        5.49714127260311
C           46.66513471514688        6.46414822274799        2.69660034426442
C           46.66895527882549        5.25742963040594        2.01691524811544
C           48.66294927900612        2.44512436167624        1.20533795953495
C           49.90724895540119        3.14892325216815        1.29351623242077
C           50.86272437686191        2.31548292906310        0.81634641690987
N           48.84789643721997        1.21489888260087        0.61986428363589
C           50.19928823057665        1.11189473717298        0.42448829097949
C           50.86638583002564       -0.03831483517648        0.00644882764461
C           50.19641335043365       -1.18382327910824       -0.41972749449003
C           50.85639731599937       -2.39060958474877       -0.80751928969908
C           49.90164987630294       -3.21446495451273       -1.30253925615612
C           48.66143706625648       -2.50190248203232       -1.22810591741359
N           48.84708886008595       -1.27620692095695       -0.63366925245575
C           47.46392904524161       -2.95571933873905       -1.76705072490001
C           47.46021291441318       -4.23379546883907       -2.51534528539974
C           48.25498893065404       -4.38821258620151       -3.65394520169574
C           48.25666803722710       -5.58384941567463       -4.35332975862026
C           47.45882227128477       -6.62118051260657       -3.89889307952089
S           47.46823329316900       -8.14307479913898       -4.76986897334798
O           47.10572011978391       -9.23071048009712       -3.90898446594136
O           46.21351030092286       -7.85750079007372       -5.76038840493255
O           48.65722448654365       -8.26104438332554       -5.55992871618114
C           46.66409769626383       -6.50011334574660       -2.77041928114111
C           46.66590257393867       -5.29853311522675       -2.08173175513133
C           46.26866471672792       -2.26064472271186       -1.62867224002855
C           45.03071486737656       -2.65729038437502       -2.22863609359118
C           44.07703320937565       -1.82535307002689       -1.74387861529449
C           44.73492609636063       -0.91857533514343       -0.85742194696346
N           46.08292242115709       -1.15610743665632       -0.83102097495648
H           43.01211461335338        1.78880401854956        1.88465422332186
H           44.90631728523899        3.43858866108448        2.86377121051258
H           48.84140329578158        3.52542356775399        3.96780685053291
H           48.84391499740740        5.68926801144828        5.18905930172673
H           45.91250247096743        8.67502713321948        6.08886003103879
H           46.06950348741111        7.29952787054580        2.35045620770468
H           46.07226590302661        5.14127558112133        1.11968475735646
H           50.02441289176478        4.15148247781988        1.67116509601786
H           51.92415306510524        2.48430756484124        0.73276943523083
H           51.91521313697844       -2.56784857293186       -0.70920392878517
H           50.01672679592852       -4.21589001272915       -1.68385874815660
H           48.86379573408971       -3.56043863787220       -3.99839474780780
H           48.86919102589937       -5.71487257455332       -5.23648997226823
H           45.94598621129629       -8.67092628143575       -6.20526245474108
H           46.06253297309753       -7.33605110001080       -2.43609738899293
H           46.06141795291683       -5.18684069074811       -1.18917836644286
H           44.91655015837824       -3.46732409132584       -2.93037284206480
H           43.01945340948848       -1.81895406400271       -1.95321424721270
