122
 energy: -202.092711339048 gnorm: 0.000416116186 xtb: 6.5.1 (b24c23e)
Zn          16.64938439178789        0.06493357610012       -0.03211951185331
C           13.23972006500265        0.15444496269509        0.06131032651457
C           13.87408052335477        1.27059540657283       -0.47129431701514
C           13.20528218401219        2.42097838367320       -1.01051954143297
C           14.16854799670933        3.28641197167065       -1.41611335990353
C           15.43868483650571        2.68038795644840       -1.11707008926968
N           15.22432600578467        1.45426956117935       -0.55774006115889
C           16.69255230558096        3.25275622279966       -1.36526051481668
C           16.71468618025431        4.61920601217788       -1.94196535022630
C           17.31571112502566        4.85841853199311       -3.18018809318923
C           17.32980678414129        6.12844781045172       -3.72955618234685
C           16.74212653379695        7.19463852607556       -3.04451384938904
N           16.79369262672581        8.47604377059406       -3.56972314633145
C           16.15437165333108        6.96782276352830       -1.79783470452171
C           16.13597547306554        5.69253413556962       -1.26061134317553
C           17.92801874243274        2.64503157688852       -1.11089683664734
C           19.20777681871965        3.27387848092823       -1.28112560107966
C           20.15060023174651        2.36508995360528       -0.92252478985068
N           18.11820594538196        1.37335299675259       -0.63940325162427
C           19.46015740866983        1.17323001280608       -0.52898706001189
C           20.08670424946910       -0.01702980764849       -0.10714247735228
C           19.42179375988390       -1.18083536429259        0.33047166558499
C           20.07058751535993       -2.40805404992564        0.68312954344724
C           19.10180300481142       -3.27339304014821        1.07866210093531
C           17.84821409129061       -2.58066738387717        0.97566202888249
N           18.07818173529345       -1.31727574773948        0.49961416175280
C           16.59853705659367       -3.12380925425153        1.29916880996779
C           16.58337897401539       -4.48625729683856        1.88397807785716
C           17.25829577454187       -4.75248185343828        3.07815401809897
C           17.24363971397699       -6.01857712695144        3.63600215188539
C           16.56067221512227       -7.05712731560130        2.99842477534971
N           16.50901932296354       -8.31615622143887        3.57429776944083
C           15.88096570556949       -6.79966176453566        1.80540962065499
C           15.89383540757447       -5.52821165640818        1.25912705299118
C           15.36466404011746       -2.48537440428229        1.12072982002844
C           14.08335389746463       -3.02026559417513        1.49772342751077
C           13.14615329494269       -2.10520331038862        1.14343211204258
C           13.84330295740602       -0.99435521749819        0.55925396201906
N           15.18443392683980       -1.25087693066771        0.56748689015112
H           12.15482958713598        0.18366374344610        0.09331582769590
H           12.13449813440258        2.53746084135779       -1.07415682915071
H           14.03450493796305        4.24688698982381       -1.88780943712396
H           17.75896028653092        4.03245556537988       -3.72587056600542
H           17.79288801571169        6.29970105724423       -4.69531699279912
H           16.91308489002199        8.51730126374686       -4.56952512839271
H           16.08600565685117        9.10334999216128       -3.22160552466260
H           15.71146063545781        7.79505264679311       -1.25379485074365
H           15.68503263340536        5.52628369778241       -0.28832703717925
H           19.36390748481120        4.28763067909068       -1.61332326661896
H           21.22073933813261        2.49255954512658       -0.91002929340313
H           21.13117715251524       -2.58822156857075        0.61715789340429
H           19.22385269228384       -4.29720679303278        1.39390614184139
H           17.78317753891287       -3.94929708595619        3.58399330701294
H           17.76246645414031       -6.20915079468112        4.56924673446869
H           17.26221476744843       -8.52114890726246        4.21156373850493
H           16.30544469679312       -9.06653367960741        2.93344288985495
H           15.34696425428984       -7.60163818663893        1.30721689842661
H           15.38003041802207       -5.34173877900287        0.32228868453675
H           13.92505822087706       -3.96942131983054        1.98436388177191
H           12.07632586148407       -2.16303770784717        1.27100082918839
Zn          27.56000634039727       -0.06265082563489        0.03637210834395
C           30.96967038750007       -0.03422769004171        0.16260797733928
C           30.33531111605521       -1.09485403574100        0.79863683942772
C           31.00411060091901       -2.17991171889013        1.45954013152728
C           30.04084562033031       -2.99614840932618        1.95677336699563
C           28.77070816644497       -2.41205479434725        1.61688342227536
N           28.98506587006991       -1.26839379073102        0.90396250984170
C           27.51684113418368       -2.93517069582214        1.95681675552834
C           27.49470856534707       -4.17085178075040        2.77710071444988
C           26.89368553859132       -5.33507667805465        2.29233173164200
C           26.87959127726656       -6.49469750107166        3.04735443227673
C           27.46727126707749       -6.51281613454930        4.31452357221998
N           27.41570615019416       -7.65858607517123        5.09237668886887
C           28.05502486480833       -5.34839261244633        4.81429725408640
C           28.07341940022225       -4.19598839264535        4.04818075864369
C           26.28137425700944       -2.38737762282185        1.59082238276744
C           25.00161666004409       -2.87671841877602        2.02090735926292
C           24.05879242824454       -2.07569856420771        1.46157148952052
N           26.09118606089195       -1.29175523192714        0.79139515076645
C           24.74923447027363       -1.08914903831521        0.68560503617597
C           24.12268597163219       -0.07989178550892       -0.07338722177472
C           24.78759506685445        0.92789033099954       -0.80162250123852
C           24.13880141384276        1.89989319951058       -1.62965793519698
C           25.10758439394636        2.70769379432721       -2.13236917177476
C           26.36117411741800        2.23909466293342       -1.61189718027013
N           26.13120756800432        1.14425408696911       -0.82189441708983
C           27.61085056787567        2.80883708896064       -1.88585744888880
C           27.62600673165970        4.04905995701902       -2.69833135122951
C           26.95108811447020        5.19149537157439       -2.26041608394283
C           26.96574574343579        6.35601062917881       -3.00747399490965
C           27.64871472373821        6.39841996354313       -4.22537764783804
N           27.70036564263140        7.57405398777161       -4.95658806404865
C           28.32842063395801        5.26179037764723       -4.66995438001166
C           28.31554996330085        4.10395631720607       -3.91204254381632
C           28.84472395916277        2.30735863497063       -1.45231609071554
C           30.12603363027320        2.91712311426121       -1.68984795074706
C           31.06323491503718        2.11622918068975       -1.12290091688494
C           30.36608636186683        1.01554655207901       -0.51978663720836
N           29.02495539056879        1.16414108828546       -0.72904925363193
H           32.05456087103400       -0.02369411255268        0.20464541857066
H           32.07489478638345       -2.29731078498730        1.52146770761291
H           30.17488974804434       -3.91999218437090        2.49670095996557
H           26.45043646183207       -5.33353434907914        1.30239138559768
H           26.41651138858634       -7.39427711386568        2.65648442476690
H           27.29631477463785       -8.51471248478784        4.57434779208314
H           28.12339234804424       -7.71503412422712        5.80757850790491
H           28.49793627614510       -5.35200419626751        5.80438574572072
H           28.52436133033996       -3.29373583181464        4.44682477820325
H           24.84548690655881       -3.71372775863384        2.68231818795700
H           22.98865341236888       -2.13571443218849        1.57472172536342
H           23.07821178208296        1.94445214186077       -1.81627782176534
H           24.98553360775182        3.53613285030476       -2.81153211343317
H           26.42621137572532        5.16933136879960       -1.31147163941253
H           26.44691969597750        7.23916328389689       -2.65067356376522
H           26.94717033396687        8.21847557049090       -4.77534155602851
H           27.90393766941703        7.45450722729688       -5.93611408146927
H           28.86242134717362        5.28966173791776       -5.61366297218494
H           28.82935781171128        3.22007613691194       -4.27424411331016
H           30.28432838204346        3.84716867079624       -2.21208455291064
H           32.13306209534682        2.25451383190233       -1.10061981387973
C           21.49606245044986       -0.04385804876866       -0.11321246839318
C           22.71332792683069       -0.07013641144341       -0.09910596312210
