185
 energy: -318.518060587189 gnorm: 0.000561427547 xtb: 6.5.1 (b24c23e)
Ni          25.32541237112308        0.23034648172123        0.10124809443839
C           21.93444240410196        0.21266822554268        0.02362412959875
C           22.58601762604345       -0.99830741269499        0.13538760233115
C           21.90981891555564       -2.25236866187362        0.26514457457270
C           22.86681515473737       -3.20997290912348        0.27695959462209
C           24.12648807562193       -2.54110574995940        0.13215753957280
N           23.94541710423982       -1.18053288702417        0.08827292501046
C           25.34213784520137       -3.19684783153923       -0.01348643857600
C           25.36036881524127       -4.67862861855301       -0.05502368711640
C           24.72182161983856       -5.36542693917701       -1.01397399421551
C           24.71726603636868       -6.87114194673779       -1.06468479923846
N           25.76590419171648       -7.43381214941990       -0.20974842287032
C           26.25180234410181       -6.72743048504413        0.85900799372410
C           26.11370984033526       -5.39390643664486        0.96499108906395
C           26.54713025692846       -2.51684375425162       -0.13500416278669
C           27.80277603588716       -3.16364179790824       -0.36607041799672
C           28.75032023313750       -2.19541852559288       -0.35690669461572
N           26.72116055861737       -1.15610225037659       -0.02064327214863
C           28.07165323191271       -0.96097590967841       -0.12209994470602
C           28.73660854239579        0.25310739228407        0.06705287394463
C           28.06084428888338        1.45521435515313        0.29342348001912
C           28.72807139776904        2.68955826068807        0.55938898325847
C           27.76628200665856        3.63927811965516        0.65066465790074
C           26.51419408357776        2.98394836074147        0.42417613701790
N           26.70546744187825        1.63256608868731        0.24089844771832
C           25.29869047911535        3.65065493145436        0.34494579390341
C           25.28714726920300        5.12729365503873        0.47717232241409
C           24.62644940968105        5.73662098271160        1.47275900844130
C           24.58670079216608        7.23528845660641        1.62073601066793
N           25.62193181732227        7.87680800922069        0.80578507047295
C           26.12860386934848        7.25106036587057       -0.30280428009982
C           26.02618284411370        5.92349570752975       -0.49197201754400
C           24.09587525712350        2.98780250676080        0.13609079730623
C           22.83654170181407        3.65038944236377       -0.03716597237503
C           21.89408884972341        2.68358756183855       -0.13702716065602
C           22.57810473564285        1.43157802505956       -0.02870067677913
N           23.93075237308711        1.62544872012568        0.10237323358847
H           20.85109238227686        0.20699545901572       -0.00907917161189
H           20.83992575766520       -2.36475906342699        0.34216016294903
H           22.74379339611776       -4.27629383100050        0.37493913012296
H           24.16182391721432       -4.86714614377565       -1.79671446794055
H           24.89605397475927       -7.21554137606699       -2.09236678026855
H           23.72827253554271       -7.26033690798034       -0.75781926668828
H           25.70740610530363       -8.43526619370763       -0.09573840844140
H           26.82697367856575       -7.31422610510789        1.56810435656699
H           26.54807248432736       -4.84549653210671        1.78866696264182
H           27.93103242706163       -4.22299944636255       -0.51746332119518
H           29.81571153837464       -2.29232675070714       -0.49060717185076
H           29.79566496204934        2.79866733138951        0.66247491928206
H           27.88362519908344        4.69193622115739        0.84999471637174
H           24.07198857773640        5.17617654472813        2.21645767416350
H           24.75698654694559        7.51659012798314        2.66892663857519
H           23.58888767973921        7.62017273501880        1.33801853605149
H           25.53739376791979        8.88153929040799        0.75369597064757
H           26.68933264686466        7.89575457967702       -0.97208907842454
H           26.47516448463627        5.43948850325200       -1.34754001305518
H           22.70512288321628        4.71929776740031       -0.08189128570102
H           20.82877815768499        2.78871952078176       -0.26848024964492
Ni          57.23069187680978        0.14104566571615        0.11521946772497
C           60.61566061754677        0.32155745460853        0.10419352667764
C           59.90741478639755        1.45201170117179        0.45680583684479
C           60.52094452888216        2.68040649786994        0.85864142026003
C           59.52052223616470        3.57702793337537        1.02782573453668
C           58.29718768165502        2.90034677093153        0.71072935746678
N           58.54229185234028        1.58408069264174        0.40591361654858
C           57.05629551995678        3.52185218726203        0.65007139857186
C           56.97000641670633        4.98243219259640        0.88676982879821
C           57.60906523180162        5.86361203076760        0.10292105133307
C           57.54524019338675        7.35044689214013        0.33751982365163
N           56.43986568333010        7.69906114313825        1.23410653433122
C           55.95168622665046        6.78420176175412        2.13003640512227
C           56.14917904076043        5.46143817704323        1.98984744079210
C           55.88742352135216        2.82559204635882        0.36970648951216
C           54.60586357584991        3.44710389545379        0.23026847091890
C           53.70335324976661        2.45117276323816        0.05912501895364
N           55.77506832586527        1.45962678159732        0.24040962891757
C           54.43553558216410        1.22529925521499        0.08970567545087
C           53.82641505560616       -0.03275335194023        0.07521840095716
C           54.55787553192688       -1.22295729676066        0.08545636033519
C           53.95242655076267       -2.51585068316528        0.12046325543671
C           54.95647387224789       -3.41813706999310        0.00326068264976
C           56.17241680186409       -2.67217411180695       -0.11412505101339
N           55.91809750718924       -1.32227524187156       -0.02174564319307
C           57.41307802624698       -3.24876674937215       -0.35339517624884
C           57.49077972752628       -4.71725438950722       -0.53972786410238
C           58.20686377033201       -5.49271256636957        0.28797395606003
C           58.31484643179131       -6.98468757834130        0.10993622548876
N           57.28407041502196       -7.48659540909079       -0.80274742373645
C           56.71639946789644       -6.66347846525274       -1.73947426069910
C           56.75577471250178       -5.32282308058552       -1.64076707935129
C           58.58131581690011       -2.50048855044889       -0.42776504990318
C           59.86785700451119       -3.05042561150300       -0.74000022616906
C           60.76663870494315       -2.04602199850082       -0.61121161221207
C           60.02833927730620       -0.88130167882386       -0.22983266258078
N           58.68572960575488       -1.15831301639380       -0.15879914835908
H           61.69791325115659        0.37977007474167        0.09683384064289
H           61.58224520323962        2.81873858302534        0.99180266500939
H           59.59157539932050        4.60636776206439        1.33964617379890
H           58.21852664926442        5.54571866513940       -0.73497013519184
H           57.38949063200717        7.87715347737493       -0.61375904005602
H           58.50273692071203        7.71190334812252        0.75744369089437
H           56.44823991372557        8.66194546727298        1.53778755473386
H           55.32506029388260        7.20261415599922        2.91120995507910
H           55.71356139608600        4.75031436429500        2.67718718781095
H           54.43019273755672        4.51004497973625        0.26056509333665
H           52.63580661998454        2.52413508535975       -0.07219685720202
H           52.89355439066004       -2.69291088030495        0.21994500157975
H           54.89058097756912       -4.49388417569488       -0.00666522698764
H           58.75940483003858       -5.07805296369228        1.12306105890549
H           58.18841469406400       -7.49123708797294        1.07652178817631
H           59.31927671763894       -7.25165569786988       -0.26891803564994
H           57.41078797855991       -8.45134878164077       -1.07209496108504
H           56.16314865565594       -7.17656881510276       -2.51961867918059
H           56.25937565725577       -4.68943581269318       -2.36205654059973
H           60.04637000750979       -4.07473737787527       -1.02417495742696
H           61.83519470608129       -2.07242997254649       -0.75509951949777
C           33.93782339798183        0.33381100846882        0.12186853789656
C           32.71115236120805        0.30018444407215        0.08437164514744
C           31.36567686710017        0.27622969972988        0.06017729864814
C           30.14261677995134        0.26321619176855        0.05560381933587
C           35.28105703751855        0.38457815360124        0.18631357588568
C           36.50022970603668        0.44898121797093        0.26328943573682
C           49.85338794385466       -0.11770929612946        0.10022594586521
C           48.62688644728772       -0.07837469988418        0.13535194383035
C           47.28514506031406        0.00572359932360        0.19531951705920
C           46.06918818703767        0.12081402980514        0.26405846241213
C           51.19900635805963       -0.12106790899360        0.07631529747431
C           52.42190163114519       -0.09501626921308        0.06750796156012
Ni          41.29699650785629        0.65860089245232        0.53838466253103
C           37.89891098826558        0.53694339346794        0.36498062344398
C           38.57903402925685        1.43443325726668       -0.46573791574046
C           37.91926516289067        2.36814231437588       -1.32060434256726
C           38.89015413600794        3.09041538807988       -1.93181981787958
C           40.14237178321032        2.56034016817798       -1.48625929501228
N           39.93606178164106        1.56837567238492       -0.55259721954067
C           41.37485029778740        2.92022172946808       -2.01417875901298
C           41.44353865031562        3.96787859933128       -3.06004789035473
C           40.83302948364876        3.83486254635371       -4.24693674094979
C           40.94507712180679        4.87311053984162       -5.33229781433138
N           41.43195279421040        6.14787415859419       -4.79830681610339
C           42.19111598762556        6.18325084805982       -3.65790192505314
C           42.21210783390442        5.17050623521661       -2.77360046222916
C           42.55886106488039        2.29473526387033       -1.64103653096914
C           43.80390474103272        2.48344342095554       -2.31962693397214
C           44.71303666867603        1.69206973844335       -1.69916951394021
N           42.70399357122957        1.39111102229101       -0.61507205450554
C           44.02783180787586        1.04579782974665       -0.62566304259171
C           44.67767427431141        0.29274260254240        0.35694204462659
C           44.01208537275680       -0.19459753734536        1.48692660752153
C           44.68612681313374       -0.75257352155236        2.61476365224647
C           43.73095400226547       -1.06160733696574        3.52585672128093
C           42.47073887599669       -0.73781194455599        2.93038753464019
N           42.66103846481002       -0.16791208852297        1.69065990450744
C           41.23886379403869       -1.06113837433941        3.48368043813191
C           41.18507075692611       -1.71968351252230        4.81059312072729
C           41.73637349736016       -2.92078306821161        5.03797813953598
C           41.69783785139168       -3.58671595313362        6.38897002323434
N           40.70846845523231       -2.95545575006747        7.26674495830184
C           40.30782393528270       -1.66218594857239        7.05919081659565
C           40.48082084883991       -1.03252857764833        5.88362333250507
C           40.03951986878516       -0.83839701190286        2.81728914555278
C           38.78075537610161       -1.35901906370503        3.25443355748158
C           37.85804352111480       -0.97652956972886        2.33817533268578
C           38.54947400579964       -0.19527947089717        1.36256305670978
N           39.88778071556823       -0.14111838659013        1.64199338861098
H           36.84936768712443        2.46321772482640       -1.41363272867770
H           38.77711920112786        3.90325906763113       -2.63030921507934
H           40.28844230816153        2.93617749419603       -4.51200968072528
H           41.61723925748341        4.51565905079524       -6.13505370851382
H           39.96152773373789        5.04975393234141       -5.78839018804308
H           41.66241229538122        6.82690292493584       -5.50927196816982
H           42.70512471912873        7.12305069638249       -3.48326329599775
H           42.75870629540134        5.24410364929185       -1.84420995112673
H           43.94856596435827        3.12687381182008       -3.17237646348168
H           45.75935710652021        1.56263010876258       -1.92444286906754
H           45.75531940229301       -0.86562030456031        2.69501068182629
H           43.86029199420682       -1.47928573600655        4.51080515360109
H           42.25175276166406       -3.47043573686720        4.25906286798020
H           42.69815036003156       -3.55134995185533        6.85953771724123
H           41.42859008356116       -4.64636739994842        6.28043898722050
H           40.75975164561559       -3.26039309719870        8.22780497257521
H           39.76828054383537       -1.21532727528574        7.88816575326494
H           40.10926958659975       -0.03109211785800        5.71958239860870
H           38.63631803235126       -1.95444081374679        4.14124363059556
H           36.79906041871563       -1.17813120776249        2.32284274189634
