134
 energy: -270.658951964612 gnorm: 0.000566936463 xtb: 6.5.1 (b24c23e)
Fe          15.74860246707127        0.05918617408729        0.05723909072962
C           12.36248883603235        0.15212643437101        0.09399354052467
C           13.00587383708254       -0.31668170562590        1.22079931354265
C           12.32396309747011       -0.77309541054847        2.39442827479735
C           13.27695015056437       -1.03855202399180        3.31845933366886
C           14.53993809505557       -0.73170827528548        2.71072115593902
N           14.36283674254658       -0.33869505233423        1.41186429263841
C           15.75833205875451       -0.77447145147598        3.37951970183211
C           15.76352267305693       -1.11333911111424        4.82198532645374
C           15.10616037010701       -0.29133993785099        5.74046679726885
C           15.11458864385063       -0.59970256816953        7.09083699201742
C           15.77979504332856       -1.74109910941369        7.50792202415370
S           15.79913124034160       -2.13429271926236        9.21644131940458
O           15.56764721634217       -0.96326556693461       10.00909325101850
O           14.46149015575732       -3.05410188884806        9.25938604265964
O           16.92107435831403       -2.96676266301045        9.53738033895818
C           16.44080895837050       -2.57526908181400        6.62104292282281
C           16.43203496878148       -2.25370345188199        5.27376897360977
C           16.97019931315834       -0.50280416074199        2.75971053890551
C           18.23085605216315       -0.46978768393223        3.43982118745049
C           19.17895485533559       -0.26304291307184        2.49426480571061
N           17.14717377585895       -0.27790617898114        1.41592538421278
C           18.49491136713438       -0.16552269383323        1.24305759743460
C           19.15449119872397       -0.06451382443356        0.01188849639955
C           18.47421354415091        0.05903253904407       -1.20591670940559
C           19.13551474160127        0.11267540833257       -2.47191402697414
C           18.17751616458315        0.34855262167595       -3.40047732037456
C           16.93502318519203        0.45181687017286       -2.69423058177818
N           17.12839554074332        0.21963150817890       -1.35346281773123
C           15.72969592073073        0.80238750421359       -3.28677627022833
C           15.72200921590204        1.14646956462038       -4.72767483793666
C           14.96225293222018        0.39565724130247       -5.62798480920006
C           14.94894334042453        0.71713942502078       -6.97531679638980
C           15.69988944269729        1.79756537695860       -7.40870481394207
S           15.67425150243289        2.22015806229188       -9.11095632462310
O           16.00875801069567        3.60119928124711       -9.30440555096145
O           16.94720870392838        1.34095317458853       -9.60425127358135
O           14.49091271437917        1.70500886959782       -9.73077225644083
C           16.45957587741512        2.56344189309750       -6.53937179979323
C           16.46926429897533        2.23057653213405       -5.19494221660358
C           14.52941826987490        0.85476148238334       -2.58581074755961
C           13.27954745814824        1.26731093190144       -3.15698486191604
C           12.33453827979270        1.08131369298410       -2.20564993705252
C           13.00918627886569        0.56754900430837       -1.05185525645631
N           14.35578381378978        0.46679495955687       -1.28524569451109
H           11.27947509289518        0.19716424044512        0.11013971524381
H           11.25341995949674       -0.86846413237487        2.48150647739014
H           13.14960299405816       -1.40979743106631        4.32238222006585
H           14.60130950312933        0.60268082847771        5.39368778192833
H           14.61913475118819        0.03643117106399        7.81345656035709
H           14.34095884285931       -3.42974015666800       10.13995709026297
H           16.95558714906845       -3.45640069152571        6.98291749847139
H           16.93591112316045       -2.89649250890215        4.56146654770713
H           18.36257100417645       -0.58236683284093        4.50356428987553
H           20.24693055042919       -0.18363193028673        2.61741757324651
H           20.19617231127580       -0.01542293866544       -2.61575417182926
H           18.29202611101032        0.44329471212082       -4.46792598414522
H           14.38981488485865       -0.45178187854977       -5.26944011125709
H           14.36265121444406        0.14324620234844       -7.68183020991963
H           17.29895164669753        1.69969751911876      -10.42789043640254
H           17.02535213264623        3.40878404575003       -6.91045087040602
H           17.04617643689416        2.82450914356007       -4.49575475030707
H           13.15473075999996        1.65239766777956       -4.15594858173887
H           11.27417945452993        1.26899592289188       -2.26133296176230
Fe          31.72470926348870        0.07560080114653       -0.03096759659311
C           35.11080819671761        0.17538635906148       -0.02979273520325
C           34.46781116436961        0.15615608266316       -1.25029549679504
C           35.15012907775888        0.16555816184497       -2.50927914290290
C           34.19745441670148        0.26042825380200       -3.46631521013606
C           32.93426499615548        0.32119749310961       -2.78861177946093
N           33.11092543432235        0.20639727199053       -1.43639867928873
C           31.71607115776393        0.52862771840435       -3.42626378189323
C           31.71104144547897        0.74630594030204       -4.89192073126886
C           32.36867686013064        1.84910182883411       -5.44217081539449
C           32.35955172524155        2.06139940878570       -6.81093173459858
C           31.69342102609968        1.15517155894033       -7.61980952760005
S           31.67229739483978        1.42152134591103       -9.35264380090165
O           31.90369843690091        2.80261326716310       -9.65635239106478
O           33.00931416576518        0.58253937537437       -9.73428852276767
O           30.54949268488130        0.76698085311466       -9.95735119000698
C           31.03242231819519        0.05254154309141       -7.10346505449256
C           31.04191255052292       -0.14634619358299       -5.73271109652081
C           30.50400953159884        0.55222199597377       -2.75025238708143
C           29.24355677837339        0.83419875963075       -3.37042111029818
C           28.29512496008677        0.67685542815974       -2.41572225109695
N           30.32656770417850        0.26464388001775       -1.41849415032209
C           28.97877427210976        0.30527249733239       -1.21678623282066
C           28.31880501838031       -0.05542585590883       -0.03548697111566
C           28.99866106852160       -0.39019196176419        1.14210500879404
C           28.33685257860079       -0.80745254959939        2.33830591523263
C           29.29449285196701       -0.93126333185073        3.28867376790157
C           30.53729921659484       -0.57501211479536        2.67078445188150
N           30.34445790257550       -0.29581840273988        1.33895618585384
C           31.74251897408836       -0.46865599820862        3.35116949102009
C           31.75017836106200       -0.68133209402171        4.81723427698062
C           32.51007437589590       -1.71163184999963        5.37630545208763
C           32.52427658779366       -1.91024484904014        6.74714391840589
C           31.77398732216298       -1.06598474235291        7.54922391848307
S           31.80114893926450       -1.30105734593441        9.28727338519784
O           31.46697439547685       -0.08872960558039        9.97666225412409
O           30.52839345033638       -2.30032041314943        9.42305295417501
O           32.98496277933756       -2.00812992415624        9.67246871068800
C           31.01383950389438       -0.03338944614720        7.02446807234637
C           31.00331071388452        0.15360650652351        5.65213660365121
C           32.94303810020696       -0.16142310965367        2.71938642333812
C           34.19276805334641        0.01067436277385        3.40289547237879
C           35.13805577502087        0.18914454674628        2.45040875267319
C           34.46373185371363        0.13813466509204        1.18825013963993
N           33.11705180275712       -0.04157636444159        1.36754679587264
H           36.19383180088106        0.22296737108602       -0.02777813011772
H           36.22070635022086        0.10899085589272       -2.62506342102660
H           34.32513551618123        0.28641425520307       -4.53632631319569
H           32.87413835924799        2.55162242684824       -4.78995713622631
H           32.85504490378312        2.91931354379907       -7.24773010729221
H           33.12887278249231        0.55947433965892      -10.69148331404324
H           30.51699017619746       -0.63237129129765       -7.76495303092915
H           30.53794805411625       -1.00661872628574       -5.30798725303746
H           29.11216929836427        1.12281057994611       -4.40047467723868
H           27.22718962446265        0.79617376610613       -2.50124764837944
H           27.27609045773132       -0.97917318877190        2.42430863526227
H           29.17952556948351       -1.23705750364518        4.31571815693495
H           33.08206264700191       -2.36688456927348        4.72988132447334
H           33.11086377815166       -2.70443576622901        7.19146967573345
H           30.17521022679688       -2.26700818633902       10.32027930123340
H           30.44848972576572        0.61524506159217        7.68177749861441
H           30.42618100827303        0.96375001272925        5.22198518895876
H           34.31731999381033       -0.00047679765064        4.47348223634005
H           36.19839843912730        0.34284214222238        2.57179287552055
C           24.35174988084383       -0.09706616474975       -0.02325421443766
C           23.12152600372076       -0.09824326603999       -0.01897647197325
C           21.78042691923356       -0.09392336914074       -0.00923215114240
C           20.55487702471869       -0.08445278458934       -0.00148471893683
C           25.69286499290987       -0.09126394366422       -0.02917427670687
C           26.91842864547796       -0.07965258247253       -0.03084706491639
