298
 energy: -531.053894241346 gnorm: 0.000385420770 xtb: 6.5.1 (b24c23e)
Cu          46.70793009364181        0.08668655934035       -0.05782550172264
C           43.30034056737255        0.17793496608927       -0.11776930470924
C           43.93228238866788        1.01672296525343        0.78826848943379
C           43.25470202812631        1.89099640564705        1.70332346906741
C           44.21178703310995        2.52764038837052        2.42274562997465
C           45.48309654366270        2.05285446484997        1.94928485310517
N           45.28187673946375        1.13634423810433        0.95777406823393
C           46.72393834392322        2.45207644189418        2.44720237347416
C           47.95736558612484        1.96960583296573        2.01099120536757
C           49.23139922563569        2.41100706976609        2.50308479143071
C           50.18225146561658        1.72922468008988        1.81597004257622
N           48.15258920187854        1.02993244742220        1.03355854556926
C           49.49693876375068        0.86991208167473        0.89650789171141
C           50.13781229458191        0.01134317074990       -0.01318570717909
C           49.48379864282458       -0.82409787346555       -0.93492645585738
C           50.15435340411781       -1.71853091332372       -1.83148518170265
C           49.19248184751306       -2.36604140867732       -2.53632898376493
C           47.92672204599582       -1.86612194633592       -2.08025683891370
C           46.68486969345471       -2.29457513319454       -2.54756302188228
C           46.67181337562414       -3.33600066753718       -3.61479368207524
C           47.08863934905417       -3.02708325034178       -4.91610646272779
O           47.48538929204722       -1.74335507887032       -5.12379064613542
C           47.92384972469907       -1.32830826114565       -6.40137961306838
C           47.07103163328396       -4.00233603258830       -5.91287397777926
C           46.64049017737378       -5.28358444718372       -5.60330193675250
C           46.22478810016113       -5.61323416749677       -4.32215154761611
C           46.23829761448752       -4.63682300534368       -3.32659617379961
O           45.85645582527964       -4.86463246629545       -2.04159542464806
C           45.39152006686098       -6.13992919517459       -1.64911947982938
C           45.45071011736341       -1.82689870896527       -2.09473918866596
C           44.17328830787159       -2.23734301794272       -2.61002332617490
C           43.22709335852180       -1.54164861138865       -1.93200160344448
C           43.91788066606931       -0.69758790822718       -0.99864730186906
N           45.26418431494798       -0.89147377809762       -1.11820245381096
N           48.13765838456494       -0.92781195344357       -1.10460988184246
C           46.73118627169488        3.47894827846141        3.52817141765479
C           47.10782701107612        3.13445443607837        4.83290827525163
O           47.44363281891493        1.83183872071574        5.02965628759195
C           47.85565695861325        1.38355790326327        6.30469836380036
C           47.11261425798094        4.09598936246960        5.84301926582494
C           46.74564188253314        5.39917151664323        5.54318359751332
C           46.37140850668641        5.76428028077852        4.25879806127976
C           46.36193799103503        4.80164609840743        3.24992612449044
O           46.01852124766615        5.06331248610416        1.96053092641881
C           45.61416012974375        6.36150526153563        1.57670589293197
H           42.21559052468230        0.20782121970395       -0.13765683413747
H           42.18290891360837        1.98993867919909        1.77832974034840
H           44.07831957944610        3.25422350409706        3.20821624718934
H           49.37332185734140        3.15164893853326        3.27353210970338
H           51.25426980689900        1.79771019793378        1.91172417179565
H           51.22459238645266       -1.83286007296553       -1.89963792312504
H           49.32141387346572       -3.11836258181648       -3.29771150558585
H           47.13098585360903       -1.43326360712699       -7.15201964149703
H           48.18788961665292       -0.27359040666275       -6.30430710644677
H           48.80698430906886       -1.89190409475949       -6.72606598631187
H           47.38748747526291       -3.77294246445024       -6.92159120281584
H           46.62850073437578       -6.04239535087098       -6.37803024915269
H           45.89554642330657       -6.62135225923937       -4.10864551844099
H           45.14469723188245       -6.06043608457887       -0.58873431891293
H           44.49248449917606       -6.42898350966673       -2.20705320836447
H           46.16306778769175       -6.90803636208827       -1.78226210358857
H           44.02896867492782       -2.96335837640468       -3.39415318879111
H           42.15493637309246       -1.58250172717703       -2.04586010067568
H           48.07987184832873        0.32086543543443        6.19518096479074
H           47.06178721335753        1.50887863802845        7.05099586692038
H           48.75717490074605        1.90857580004047        6.64315601224222
H           47.39774717808280        3.83908883937381        6.85444080374226
H           46.75145930525276        6.14733222190689        6.32828946492352
H           46.09252133540903        6.78906972502307        4.05287969160228
H           46.41461513520980        7.09489620945145        1.73252526570713
H           45.38273711138181        6.30501562132606        0.51135714199974
H           44.71846052052907        6.68126686934732        2.12301765148416
Cu          87.15040424732919        0.02069739020743       -0.09833865096936
C           90.55725658098078        0.11601254250148       -0.18225119016182
C           89.92825144014782       -0.62689184337891       -1.17035309629074
C           90.60855936810091       -1.36935567267662       -2.19340739591378
C           89.65336369373901       -1.95753245652610       -2.95538611649741
C           88.38051009735509       -1.57239854260238       -2.41019246985705
N           88.57901479996909       -0.76880144753085       -1.32457282818879
C           87.14007114512107       -1.97051430086527       -2.91002151178302
C           85.90488511836280       -1.61692429357769       -2.36795956518243
C           84.63188720083694       -1.98946630016804       -2.91618980364253
C           83.67917267579683       -1.44761815762239       -2.11610332706762
N           85.70736007727575       -0.85134721788838       -1.24930920307617
C           84.36255877794041       -0.73906588443021       -1.07491090764864
C           83.72035983097805       -0.05256784564960       -0.02971298843339
C           84.37396545143672        0.65405395546300        0.99485649696533
C           83.70319812748872        1.32412279720789        2.06918769662161
C           84.66347251378353        1.89569651260720        2.83902042119679
C           85.92820570408186        1.58336700742936        2.23675556782198
C           87.16798316905495        1.98888859619687        2.72957198893880
C           87.17668288542994        2.83952477417395        3.95409990554029
C           86.71456199475770        4.16130318851692        3.90339753986469
O           86.28245779268150        4.59339090834155        2.68897807614982
C           85.78261242771244        5.90585837407493        2.53283312658140
C           86.72610922981114        4.95732329700260        5.04840542243652
C           87.19549680406797        4.42713494266001        6.24059956246723
C           87.65657119888594        3.12151313439201        6.31545972904083
C           87.64952170604590        2.32709583769150        5.16936707370632
O           88.07399516289912        1.03544818529584        5.14454717312965
C           88.58801714873775        0.42915614704840        6.31277769813849
C           88.40223043454479        1.66316757427935        2.16603537836916
C           89.67689842650404        2.11544581858183        2.65219796516840
C           90.62437608307232        1.59188077386217        1.83539928432265
C           89.93695556210817        0.81934831195213        0.83972060949608
N           88.59124327558294        0.88230935557298        1.06233578863595
N           85.71871423166112        0.82066240980457        1.11816822536444
C           87.13490237106265       -2.84348925766284       -4.11860310747291
C           86.73616260610110       -4.18331070833016       -4.02166981667920
O           86.37679877754915       -4.60742846201772       -2.78115542916033
C           85.93956147096519       -5.93546315018096       -2.57695770775178
C           86.73528550605278       -5.00267522384537       -5.15010980143138
C           87.12798886760004       -4.47758653588846       -6.37195701356124
C           87.52393976849154       -3.15409538423432       -6.49294262721381
C           87.52974980809398       -2.33618822863672       -5.36347752018086
O           87.89343729005709       -1.02601142519720       -5.38261674547846
C           88.33214335496210       -0.42270164666229       -6.58242667145153
H           91.64179350018163        0.14762943679021       -0.20967002053187
H           91.68070694832612       -1.42876385725634       -2.29885148704767
H           89.78917850465426       -2.59752980742652       -3.81249430747058
H           84.49210919649164       -2.58649168052566       -3.80296704750627
H           82.60720121924726       -1.51432052879416       -2.21372963401166
H           82.63400732382186        1.34508643840552        2.20886392950126
H           84.53394069556909        2.47722116636555        3.73756536233722
H           86.54869984628360        6.65746066283708        2.75949171788161
H           85.49037766424901        5.99705472779882        1.48504506771832
H           84.90528484531087        6.07994249161086        3.16758765748330
H           86.37534551901165        5.98022977116246        5.01853867771371
H           87.20258366412112        5.04555148952438        7.13146909738964
H           88.01534763438326        2.73352090477697        7.25940388153233
H           88.86716792386171       -0.58759125944590        6.02995267618978
H           89.47616063585093        0.95673509565862        6.68151751487805
H           87.83496912107344        0.38708806070712        7.10912962404071
H           89.81875082703286        2.75418763701039        3.50930274740680
H           91.69527788592220        1.71278660867943        1.88738009989947
H           85.69826666399346       -6.01579883943895       -1.51539843747636
H           86.72524801863928       -6.65993505376617       -2.82332497819186
H           85.04288914233766       -6.15848716796788       -3.16779878916028
H           86.43383798303903       -6.03956705775110       -5.08460889832340
H           87.12552846125936       -5.11428226680062       -7.24989736621943
H           87.82255455640002       -2.77048816002139       -7.45941941211900
H           87.54600806465089       -0.42914328311980       -7.34713531831114
H           88.57819601809982        0.61063066491741       -6.33063505234277
H           89.22639869872813       -0.91941882610152       -6.97806439321468
C           52.76741468843549       -0.02193771930679        0.01119020727177
C           51.54601586560634       -0.01137779372294       -0.00006650623994
C           54.11908113450709       -0.02943552542636        0.01847218227660
C           55.34069548972165       -0.03087690707749        0.02461480592632
C           66.25515366410890       -0.01503115159431       -0.00696377404078
C           65.03277885815277       -0.00958504825371       -0.00603251625281
C           67.60522706399904       -0.02168998029663       -0.00729462971657
C           68.82759389687386       -0.02902654760129       -0.00587197301226
C           79.74032052667113       -0.09358284518776        0.01425956967357
C           78.51847764007175       -0.09673814195322        0.01874248527515
C           81.09138856310094       -0.08546118914016        0.00479694099219
C           82.31298729736346       -0.07326171899206       -0.00844033525729
Cu          60.18719691166055       -0.01392712682390        0.00993021472059
C           56.74854787328828       -0.02836842625931        0.02190815261881
C           57.40134161850899        0.01026971879818        1.26622814904249
C           56.72890134482402        0.01204906356586        2.53123183255235
C           57.69021031459610        0.03868587702218        3.48898490741546
C           58.95637543875931        0.05947702585900        2.81433293028468
N           58.74748071165143        0.04026461620924        1.46111622280340
C           60.19845305784189        0.07406933382887        3.44865259702079
C           61.43598006561689        0.05879222720595        2.80580432820815
C           62.70636013690861        0.11387947313845        3.47025474113127
C           63.66147078896292        0.09217291287440        2.50606748759684
N           61.63641430480209        0.00986556968050        1.45175189221253
C           62.98095359485075        0.02861051522233        1.24717776243760
C           63.62680422121437       -0.00712201960518       -0.00198158294628
C           62.97266228904090       -0.04178018464009       -1.24680191119880
C           63.64481663355299       -0.09953158829977       -2.51045205672253
C           62.68323332691983       -0.12145310043198       -3.46822812136222
C           61.41727440837419       -0.07369412553415       -2.79492484491028
C           60.17540600016827       -0.09569110810631       -3.42902750104432
C           60.16976870460412       -0.12416624664334       -4.91994838045397
C           59.75990140652456       -1.27486119221891       -5.60599478688759
O           59.39213252448087       -2.32917485247468       -4.83041878495246
C           58.93620802991250       -3.52841489615730       -5.42242077537632
C           59.75578832316321       -1.30101996302866       -7.00030263869680
C           60.15667325922641       -0.17455757217162       -7.70264115567905
C           60.56370073108579        0.97661834848672       -7.04539814287666
C           60.57255596739453        1.00112287741409       -5.65107194129018
O           60.94599172009935        2.08311809923727       -4.91778389427518
C           61.38109893439866        3.26570242496732       -5.55724391150497
C           58.93792041033920       -0.09273934521964       -2.78578634949113
C           57.66704362782119       -0.08146961369592       -3.45165961354411
C           56.71221937593592       -0.06591521018823       -2.48726557030571
C           57.39334557070793       -0.06111481462762       -1.22689002718079
N           58.73828211214583       -0.07891685864524       -1.43108305064966
N           61.62672069427719       -0.02704260863661       -1.44215174972227
C           60.20402225032907        0.10565709072943        4.93946115314625
C           60.62575191490461       -1.01349858926844        5.66937154916977
O           61.00536359793922       -2.09245354132544        4.93481132128353
C           61.46685460930101       -3.26635205254884        5.57170731210620
C           60.62852093480836       -0.98620385005044        7.06364961159876
C           60.21455143640890        0.16190077513068        7.72196963622249
C           59.79554666956338        1.28254253366936        7.02084494519807
C           59.78782691437333        1.25342593710753        5.62660562843544
O           59.40275164400965        2.30210469649645        4.85185474704023
C           58.93787947162848        3.49752994952676        5.44456322504251
H           55.65823283615000       -0.01073757136250        2.65888084852124
H           57.55958413206181        0.04084153670450        4.55914383953346
H           62.84383525653399        0.16623060119466        4.53827333521557
H           64.73289382993093        0.12087486001036        2.62581620882950
H           64.71552597118408       -0.12386358679800       -2.63736593136143
H           62.81338082797376       -0.17005347491986       -4.53735194721721
H           58.04031410072188       -3.35992619808450       -6.03235811397638
H           58.68712673040385       -4.19883499849913       -4.59772502750938
H           59.71376557052751       -3.99266403924504       -6.04126846408697
H           59.44547258671092       -2.18613283186470       -7.53934536956554
H           60.15162861028548       -0.19423262791523       -8.78696641372624
H           60.86869154991761        1.84158352136571       -7.61906702180273
H           61.63183074026679        3.96765470775747       -4.75976074823674
H           60.59089523272849        3.69878900461621       -6.18261802594347
H           62.27172266864885        3.08591849387985       -6.17160309284811
H           57.52903550232497       -0.08180053860694       -4.52088584159023
H           55.64059071743770       -0.05253462031468       -2.60775513964062
H           60.69058402147983       -3.71172181986820        6.20582226454568
H           61.72127358925722       -3.96529615798610        4.77272737901692
H           62.36058189396677       -3.07043470929961        6.17656611623898
H           60.94790815775987       -1.84661211025715        7.63635293244600
H           60.21863053854291        0.18383883480713        8.80626600129382
H           59.48075755796066        2.16558055169526        7.56072135644946
H           59.71549543637153        3.97307669715111        6.05468883198340
H           58.04983063671331        3.32014306460935        6.06336090254085
H           58.67304350227432        4.16228756619790        4.62020308536349
Cu          73.67253410379207       -0.06498703232112        0.00726588179043
C           70.23349065700690       -0.03892452273672       -0.00247619748694
C           70.88008900397288       -0.04101242542881        1.24683632421687
C           70.20062652023996       -0.06284181372800        2.50769281159240
C           71.15644846594193       -0.04691572917731        3.47134524946594
C           72.42610047485699       -0.00987290898407        2.80439866137210
N           72.22471748729332       -0.01291879170758        1.44956517379668
C           73.66404659510052        0.01562983687074        3.44602832744571
C           74.90539828691831        0.01405275131243        2.81014946047230
C           76.17151471224923        0.08677939768732        3.48102941552799
C           77.13225263433570        0.06040132049624        2.52254362626350
N           75.11344266382518       -0.04641019205387        1.45801269893133
C           76.45929395868644       -0.02438689930261        1.26078956514225
C           77.11140341012619       -0.09277214503699        0.01706465311861
C           76.46476617440602       -0.15203333298423       -1.23017088491477
C           77.14330355843946       -0.24535675244855       -2.48832901164454
C           76.18781210126187       -0.25114101111192       -3.45234368583896
C           74.91936366474006       -0.15756483806066       -2.78854580055884
C           73.68218260204901       -0.13117262716761       -3.43223544658397
C           73.68945612704570       -0.14309302551809       -4.92322325189848
C           73.23618088683578       -1.26558455239679       -5.62852349868090
O           72.81301681228200       -2.31225790583486       -4.87118567120964
C           72.31810213691919       -3.48511095705636       -5.48454826901263
C           73.24751381354274       -1.27444605791610       -7.02306178984585
C           73.70750562424665       -0.15916808922882       -7.70669046473524
C           74.15879828413799        0.96410638958487       -7.03037255988914
C           74.15215002565324        0.97122538015110       -5.63591271392452
O           74.56597901723472        2.02638924938152       -4.88530685057703
C           75.08181428836328        3.18705685653613       -5.50456751740049
C           72.44101074042564       -0.08986325171369       -2.79759488219322
C           71.17573375966244       -0.02883646374727       -3.47104067081574
C           70.21496372488400       -0.00498845025121       -2.51247151098898
C           70.88708328274137       -0.04417512649457       -1.24812891614906
N           72.23220896618969       -0.09203700256453       -1.44376256369425
N           75.12062786766813       -0.10669187082007       -1.43497621995404
C           73.66064195130205        0.04587358956746        4.93676713386304
C           74.09112453497687       -1.06904440649339        5.66804486425821
O           74.48701803244315       -2.14290822467425        4.93455844890915
C           74.96627540056906       -3.30895074356047        5.57266397980432
C           74.08528680128873       -1.04321897789128        7.06232481164458
C           73.65385060290511        0.09927345213726        7.71922960601698
C           73.22580106249077        1.21562565000782        7.01674916604768
C           73.22669507336381        1.18797070234949        5.62245642886713
O           72.83388548602633        2.23265871415979        4.84642802404111
C           72.35950437378020        3.42528282685667        5.43732233241693
H           69.12937962936299       -0.09068210744010        2.62921343280124
H           71.01993405848739       -0.06133927578906        4.54067493135064
H           76.30238030190604        0.15260126063356        4.54915822237080
H           78.20282141571147        0.09746672884264        2.64765181874095
H           78.21366427374019       -0.30171301084025       -2.60770924576135
H           76.32376481455626       -0.31628711520776       -4.51987084611636
H           71.43765320723629       -3.27381175350623       -6.10352700715652
H           72.03213787153986       -4.15551381330579       -4.67193005508565
H           73.08502071748981       -3.97167829646986       -6.09952187953047
H           72.90383419321270       -2.13789458585858       -7.57677710597436
H           73.71442053503252       -0.16549563217421       -8.79115777170798
H           74.50959965589499        1.82121621776896       -7.58946548621135
H           75.36174594306752        3.86418875362445       -4.69539941144526
H           74.32950676267868        3.67390805348485       -6.13709535639028
H           75.96967387742141        2.95982936765501       -6.10708778075348
H           71.04523305812330       -0.00550727574067       -4.54094397683095
H           69.14491168955061        0.03984839885167       -2.63936258078471
H           74.19529389902036       -3.76847890634464        6.20315718997215
H           75.23637361495794       -4.00277017230018        4.77434349268886
H           75.85377932632872       -3.09770952156378        6.18148850272111
H           74.41096478465089       -1.90055933330779        7.63609744636215
H           73.65105454908847        0.12008665536458        8.80354944264350
H           72.89696165190688        2.09413380432130        7.55562130847172
H           73.13128063061242        3.90425779043564        6.05214836110676
H           71.46883984705386        3.24302663838039        6.05090781417499
H           72.09602764454102        4.08923192575009        4.61187402743601
