138
 energy: -270.910967958141 gnorm: 0.000685738941 xtb: 6.5.1 (b24c23e)
C           10.20865400445567       -0.05946649896514        0.09080339051443
C           10.80592603155906       -1.27112785585346       -0.23116929838589
C           10.14371836819267       -2.50399221148519       -0.49106838861363
C           11.09535373249816       -3.44040531469707       -0.78078371347406
C           12.36974565678911       -2.80696380020894       -0.71624635317393
N           12.14490321413266       -1.50484159406639       -0.37187168308154
C           13.62641245086866       -3.38373713526537       -0.93238226193910
C           13.64173303276316       -4.81399303525710       -1.32367676106544
C           13.01731258136311       -5.22891549971028       -2.50285863983048
C           13.02997104127396       -6.56332285335609       -2.87386454736341
C           13.66798713528597       -7.47664982294819       -2.05022954428674
S           13.69186700480870       -9.16622825818267       -2.51752438336698
O           13.54241446190676       -9.30977063129732       -3.93636029080164
O           12.29549435193498       -9.62405132407098       -1.82451906389280
O           14.76892351398573       -9.85347967992584       -1.86926714172370
C           14.29712929422371       -7.09606186269871       -0.87605041206663
C           14.28187903444110       -5.75840231952626       -0.51703480269736
C           14.84942085363805       -2.71958090117027       -0.80821000416997
C           16.13677860345366       -3.32803339894722       -1.09341983474824
C           17.06756409285372       -2.38136578549264       -0.85458553125180
N           15.01853414500222       -1.42362622933683       -0.42797760865659
C           16.34720269706153       -1.19426248526110       -0.43624656288806
C           16.99847345444440        0.00740259558533       -0.09079098866709
C           16.37586205036581        1.21662415036424        0.27343207111175
C           17.03361189132203        2.42206747938031        0.63499567439548
C           16.07652778360292        3.36144793450564        0.90161161594294
C           14.80349521321379        2.75826467678290        0.70332618009531
N           15.03625983312898        1.46060158053855        0.33307540548161
C           13.54642506320848        3.34722584247901        0.87833300482856
C           13.52988946908900        4.78072556710230        1.25550376994157
C           14.08770460530008        5.73938065073408        0.40541333597458
C           14.07104110412023        7.08068729314142        0.75024993684106
C           13.49775642802478        7.45014874375280        1.95625614569548
S           13.46959122349786        9.14685832067186        2.39623383608478
O           13.55209064388560        9.97702716298481        1.23062630297093
O           14.89779168845616        9.21170417533395        3.16754516866762
O           12.43299172604188        9.40941400119555        3.35075063476465
C           12.93615212657638        6.52367277290799        2.81979484333661
C           12.95319651346650        5.18566910644547        2.46215371713096
C           12.32192012191743        2.68846126568046        0.72572426642358
C           11.02289885252716        3.32936196771105        0.86501571628123
C           10.09980301085373        2.37151723107616        0.64814612950129
C           10.83315565682812        1.15018171785240        0.36386185849804
N           12.16828512307198        1.38093130034079        0.41060152905261
H            9.12401712309310       -0.06730169655813        0.12714790463895
H            9.07531582093141       -2.64403128614795       -0.45243959072164
H           10.93505868578451       -4.48138218608484       -1.01009871915340
H           12.87576618862406       -0.81404427611713       -0.23822122898890
H           12.53610159505731       -4.49683995404691       -3.14093093966478
H           12.55949002168315       -6.89359435550990       -3.79146055139097
H           12.05704659790072      -10.51337527208436       -2.11331022000369
H           14.79100050789575       -7.83578050828632       -0.25862236296210
H           14.75807598252264       -5.44133593586862        0.40334383940372
H           16.28629623174768       -4.33685356589425       -1.44232135331351
H           18.13887450447563       -2.45125297908325       -0.95357470527890
H           18.10342400220509        2.54407744674967        0.68644814454535
H           16.23535070751758        4.37916821458954        1.21871106798888
H           14.30662311674122        0.78223740200553        0.14044929646329
H           14.51922419565852        5.43115203024310       -0.53979384521509
H           14.48928631623213        7.83291994262122        0.09327632129134
H           15.05765170458201       10.10228878088780        3.50281124173608
H           12.49188096940981        6.84804591492784        3.75240768281157
H           12.52956235370023        4.44365556821623        3.12877310569250
H           10.86402115135016        4.37274624185843        1.08479180523443
H            9.02447530822447        2.45427542315946        0.66254695077365
C           35.53153167711712       -0.00079920292408        0.10856648336367
C           34.93386789099006        1.19592912792958        0.48162885636373
C           35.59562760255937        2.37749503925316        0.91977445833249
C           34.64378966630281        3.32450997621757        1.17192427148617
C           33.36973284549094        2.75441446420352        0.88685450278529
N           33.59492629038222        1.46893006158665        0.48505005879533
C           32.11306335417063        3.35825101971186        1.00882373373507
C           32.09783282181200        4.77744971716046        1.43828341504949
C           32.72613233214914        5.75532229054713        0.66266355149892
C           32.71414052300710        7.08257248533506        1.05849106825636
C           32.07268451259646        7.41863149075618        2.23968355230143
S           32.04894786161743        9.09798995472118        2.74247981415860
O           32.20348875113993        9.97392059277137        1.61775542983968
O           33.44229263102923        9.11620126284311        3.57790946814003
O           30.96869080661177        9.33621256774529        3.65287580881471
C           31.43948170481095        6.47255788814628        3.02920991881909
C           31.45429470659047        5.14888815800478        2.62162160090933
C           30.89022613268622        2.73005936975989        0.75920882646953
C           29.60280864024669        3.39703169278715        0.83968570549546
C           28.67225793384009        2.46798740393433        0.53875539769159
N           30.72142526726697        1.43011974995366        0.39256204258747
C           29.39286418545875        1.23999606505913        0.26322089974572
C           28.74173494231796        0.03804067599830       -0.08166102240107
C           29.36453749363776       -1.17984274135267       -0.41531323504575
C           28.70717039086420       -2.39378680268432       -0.74777783525944
C           29.66452829670831       -3.33068645133048       -1.02211326135070
C           30.93735742038206       -2.71329839611891       -0.87214427517951
N           30.70422756897005       -1.41730019166461       -0.49639894008051
C           32.19459242345344       -3.30435979914371       -1.03918488313946
C           32.21098591121763       -4.71883031698402       -1.48223731955592
C           31.64889236318388       -5.07914339750185       -2.70985376322465
C           31.66468369587852       -6.39851021500948       -3.13097793580189
C           32.24156007329078       -7.35229848405152       -2.30814400576978
S           32.26976375907036       -9.02312530354656       -2.83796466205927
O           32.17875935684982       -9.10643526503062       -4.26598576640669
O           30.84665397683002       -9.49141781878650       -2.21015839062061
O           33.31202385788740       -9.75076586291767       -2.17587389624553
C           32.80768084014565       -7.02636798333819       -1.08635404242256
C           32.79128940243541       -5.70305585815065       -0.67775159037388
C           33.41900517096678       -2.66469760055222       -0.81929674716170
C           34.71820111822096       -3.28047814761986       -1.04417393267726
C           35.64105883589686       -2.35420425323460       -0.71713168802789
C           34.90739978740446       -1.16973816953570       -0.30597428937163
N           33.57232062945594       -1.39035532653708       -0.38908003013030
H           36.61613856924836       -0.01346464635040        0.14443019370602
H           36.66386213127525        2.47516182203961        1.02893743467128
H           34.80370592847886        4.32751251169844        1.53292654006321
H           32.86440965766690        0.81312990911896        0.22912544120142
H           33.20989370251683        5.47431961402768       -0.26558839187215
H           33.18780561546294        7.84967864581005        0.45883437241257
H           33.68164062889107       10.02319752118473        3.80431142524544
H           30.94291545674075        6.77107281727495        3.94387982790581
H           30.97509922376506        4.39145735733039        3.23076195608875
H           29.45283289729768        4.43708126887953        1.07970697713525
H           27.60098751560299        2.57982416894687        0.49135534590227
H           27.63744437462014       -2.52549603778016       -0.76715429422786
H           29.50596401873553       -4.36165907331984       -1.29316206522976
H           31.43366029477084       -0.73971222316918       -0.30035723377875
H           31.21451134846248       -4.31582236663009       -3.34492786969153
H           31.24283911871826       -6.68655047361262       -4.08570796146619
H           30.68765948933812      -10.42442965374380       -2.39805801741557
H           33.25488228537895       -7.79670969865156       -0.47074065573897
H           33.21841907311460       -5.42874980946439        0.27972849132670
H           34.87732793954111       -4.28013187132480       -1.41506896231547
H           36.71641053116905       -2.43136480097186       -0.74962931241341
C           18.40362948941806        0.01396545775698       -0.10895028627115
C           19.62835423511862        0.02434591053799       -0.11027762027937
C           20.97056417353451        0.02857861311168       -0.11514013560291
C           22.20143437925627        0.03219782981335       -0.11685978157143
C           23.53889717593989        0.03523106508503       -0.11544904143232
C           24.76967605438180        0.03757143509242       -0.11304780733833
C           26.11187209346585        0.03689976020635       -0.10740362117734
C           27.33657917442657        0.04213649217448       -0.09940186164195
