136
 energy: -224.431855464306 gnorm: 0.000998740073 xtb: 6.5.1 (b24c23e)
Co          17.63155076957758        0.01568399755039        0.03244143170675
C           14.26491006385080        0.13113409633039       -0.09732200928517
C           14.90944145437671        0.82530974580124        0.90490069013377
C           14.23970270829935        1.55626124864208        1.93617768897098
C           15.19266159851484        2.25794751955658        2.59587677395741
C           16.44101581920424        1.96704457332004        1.95459106891397
N           16.26467206208482        1.03513784489812        0.96473244062093
C           17.63177921716697        2.63782528292150        2.21291586231772
C           17.63017386078160        3.77293640677680        3.15880359986435
C           16.77979007291876        4.86540420403256        2.96126757370259
C           16.78251916718392        5.93195967298701        3.83942682050328
C           17.62897026417070        5.93310761228420        4.95527904766977
N           17.63061415260634        7.04628842161202        5.78133369311335
C           18.10221870016905        6.92736228919934        7.15437405521677
C           18.48408577270244        4.84517532269469        5.15613406927439
C           18.48111209225529        3.78499537270078        4.26629686956927
C           18.81976090485629        2.27167279788187        1.59473912690921
C           20.06270052128711        2.96261329648062        1.76353528532470
C           21.01595042578910        2.20476519725723        1.16857266864738
N           19.00213039270971        1.14076866445509        0.83195008426969
C           20.35138383669658        1.06235011259730        0.62725801019277
C           21.02111388005357       -0.03897036721157        0.08782454658315
C           20.33089752862149       -1.11852303517840       -0.47100308649092
C           20.96803570104010       -2.29645023747020       -0.96597032291342
C           20.00965960965731       -3.02136530093451       -1.59383492917766
C           18.79314966418608       -2.27302957765469       -1.49414707022030
N           18.99180522207592       -1.13754774614776       -0.74231450290855
C           17.62268849466474       -2.58716023165959       -2.17185070203933
C           17.61412827613749       -3.72817611559207       -3.11026869395290
C           18.52449777064817       -3.79278853546872       -4.16767555343633
C           18.51810716559287       -4.85488867405760       -5.05503248103477
C           17.59275337607100       -5.89199411630056       -4.90229685895233
N           17.57711964115072       -7.00543081764801       -5.72748070355795
C           18.13023153238086       -6.91801671409821       -7.07202415591499
C           16.68675861520971       -5.83945448171707       -3.83531069120257
C           16.69443677691133       -4.77093262373008       -2.95963215241816
C           16.45689566399950       -1.85093016637667       -1.98869323989723
C           15.23626738414676       -2.07839541357384       -2.70506719881639
C           14.28745848376693       -1.31052301209428       -2.11760237340385
C           14.93227751394091       -0.60626805825090       -1.05215286034293
N           16.27523803707097       -0.89101021982902       -1.02690519298222
H           13.18225588519969        0.16374222323280       -0.13396408257073
H           13.17637779181361        1.52719331018701        2.11455781129231
H           15.07310299046360        2.91641951845387        3.44111826506761
H           16.12785429889372        4.88556728989190        2.09475535689136
H           16.12688271806633        6.77891157300265        3.66628367589599
H           16.77905911149108        7.58979469090017        5.70961295366523
H           19.18117305845661        6.76928581544612        7.16674327251038
H           17.61079341346090        6.10040669451433        7.67884976999868
H           17.88080572870843        7.86216291956389        7.66864570162175
H           19.15488309427364        4.82018710848535        6.00618219901641
H           19.13516830310935        2.93835293563523        4.44502729965945
H           20.18037194480807        3.90582242271509        2.27167469724292
H           22.07645646074609        2.38643457059236        1.09951061460787
H           22.01481719716670       -2.52398065995928       -0.84349365453995
H           20.10789372517348       -3.97790926672899       -2.08084572712038
H           19.23354316673789       -2.98441924279513       -4.31010063126971
H           19.23580793756908       -4.87097187287352       -5.86604399157982
H           16.69482310581120       -7.50204235095426       -5.70206884604037
H           17.71075517418650       -6.07058948249801       -7.62590431286988
H           17.89184415178293       -7.84389401827790       -7.59528152505809
H           19.21488219773268       -6.81367280867295       -7.02410060005532
H           15.97598549052752       -6.64784689778170       -3.69923517616943
H           15.99456889057753       -4.75081516621952       -2.13133749041302
H           15.13084234803169       -2.74196730793292       -3.54816112242247
H           13.24119905970571       -1.22199350431333       -2.36393045728795
Co          31.01033231615722       -0.03628261755729       -0.00600652380561
C           34.37658750353965        0.06775681880765       -0.15007149997006
C           33.73242123351828       -1.06259492135110       -0.60746327322049
C           34.40209703894955       -2.22896294117580       -1.09471230009809
C           33.44923734011557       -3.02585036373396       -1.63586456636971
C           32.20097336847933       -2.33616508745700       -1.49296142339716
N           32.37729005097840       -1.16654485533460       -0.80010121128682
C           31.01007822095189       -2.73437798093021       -2.09133956559754
C           31.01149208801732       -3.90512117322559       -2.99257822765539
C           31.86419534177001       -3.95274565878138       -4.09999934597324
C           31.86148447751471       -5.04287267272737       -4.94871478685728
C           31.01244776028429       -6.13043821578113       -4.70786476749462
N           31.01139877956924       -7.18022652322298       -5.61312507666746
C           30.53609374994914       -8.49292936483128       -5.19745820014966
C           30.15478718359904       -6.08694728383617       -3.60434596945544
C           30.15807753719948       -4.98700385278041       -2.76422578104102
C           29.82206108202091       -2.05122679406099       -1.86843727098541
C           28.57893571577057       -2.36625925244189       -2.50579304874647
C           27.62588342657667       -1.62038711146275       -1.89559403088356
N           29.63998873703139       -1.06018587757405       -0.93096491677875
C           28.29064338859530       -0.84337409545080       -0.89852995629222
C           27.62106334565079       -0.07762386223708        0.05933524703804
C           28.31157017616684        0.70100948165402        0.99278584682423
C           27.67565425600256        1.43816788947329        2.03705980268556
C           28.63426155552850        2.20927517622518        2.60701124435050
C           29.84954778922958        1.95167465710647        1.89534630767541
N           29.65025245654153        0.97154102775316        0.95015293768623
C           31.01907295069189        2.68373630919832        2.05123529720142
C           31.02778698607898        3.84844006272742        2.95994512366355
C           30.11506559714203        4.89281552050845        2.79480456324417
C           30.12211287580475        5.99067578018847        3.63750433077847
C           31.05036380502042        6.06955834380717        4.68028045534608
N           31.06708155349076        7.11797498922169        5.58641884889556
C           30.51056385735915        8.41008469747366        5.20957708460244
C           31.95847078066175        5.01821391023071        4.85954499275927
C           31.95021683957917        3.93046052262743        4.00794323226664
C           32.18391545666650        2.34606309978707        1.37020967859640
C           33.40379426851086        3.09626069490526        1.43356644213131
C           34.35276824335003        2.35555145542420        0.81244661891676
C           33.70871459945523        1.16087598405748        0.35973747955461
N           32.36587327757603        1.19767746672387        0.64386095813473
H           35.45923215423998        0.09684785395746       -0.18985125855255
H           35.46529961746518       -2.39710210488045       -1.02652458700048
H           33.56897996121328       -3.99466297342393       -2.09345427188641
H           32.51801563699677       -3.11274814574671       -4.30782713956118
H           32.51915748116436       -5.06033432416823       -5.81147619450730
H           31.86441384529860       -7.23085288629280       -6.15696634435646
H           29.45605561636523       -8.46839469393802       -5.04477076310083
H           31.02360261860819       -8.82380586771258       -4.27316365627639
H           30.75971096148487       -9.20028899085660       -5.99609615416453
H           29.48210298104941       -6.90975719045463       -3.39559147137897
H           29.50243744015773       -4.97537454630773       -1.90023073580391
H           28.46088101238047       -3.06760588301001       -3.31565458309531
H           26.56526627934711       -1.59270951681842       -2.08741754469973
H           26.62959467879454        1.36610296199912        2.28822379610580
H           28.53698528734319        2.89149626220375        3.43582110966996
H           29.40368858997471        4.85407305604305        1.97691250899107
H           29.40266731064860        6.78449422049029        3.47824432518564
H           31.95033024330036        7.20282541036722        6.07461676367031
H           30.92584085375504        8.76613414781561        4.26012774722250
H           30.75085928889829        9.12329367483636        5.99778824150388
H           29.42577974927956        8.33893791978081        5.12230818743047
H           32.67135200026982        5.06299634752510        5.67624705559181
H           32.65177111354729        3.11880958626141        4.16713960225579
H           33.50867538618015        4.06453529084486        1.89583795950923
H           35.39870003133444        2.57744849264570        0.67115663535910
C           23.64653189139729       -0.07473030370259        0.10587655023959
C           22.42404172070324       -0.06059334239690        0.10420899043379
C           24.99563580868615       -0.08245204648377        0.09903624285669
C           26.21811599183656       -0.08675352045456        0.08315260969539
