191
 energy: -370.494788800749 gnorm: 0.000437740458 xtb: 6.5.1 (b24c23e)
Zn          29.70194946074762       -0.01075800520927       -0.04362289609337
C           26.29227500706234       -0.03840738545344       -0.07258988620373
C           26.92239168772792       -1.26108229764281       -0.26782570879863
C           26.24832925174087       -2.51667855591467       -0.44663675820193
C           27.20695353682600       -3.46228870995496       -0.60635935157432
C           28.47969329813692       -2.79261286844920       -0.53851822893140
N           28.27201865951061       -1.46278300294686       -0.32214920289798
C           29.73244452164017       -3.41086190462808       -0.64446548019645
C           29.74089307276504       -4.86979837960523       -0.90469359237518
C           30.32168889209046       -5.75049950463438        0.01325092953563
C           30.31942449194910       -7.11342002560821       -0.22074476194213
C           29.73617804774641       -7.60153068756029       -1.38685621793272
N           29.72923196200125       -9.03113568207229       -1.63694592782495
O           29.20932697000628       -9.41753744597069       -2.65267258631802
O           30.24227665930676       -9.74453784151826       -0.81293870042574
C           29.15757896237206       -6.74180396861525       -2.31654982713933
C           29.16044953365068       -5.38130076312175       -2.06989058081573
C           30.97314968350995       -2.77302565824223       -0.52763667080799
C           32.25254356875278       -3.40654547501873       -0.69292805369817
C           33.19817524219886       -2.44848439665274       -0.51965237217810
N           31.16562198816674       -1.44199893413382       -0.27299290364290
C           32.50751116471505       -1.22007329373117       -0.25686170090381
C           33.13859521634794        0.01794138395496       -0.01993501850024
C           32.48399861352600        1.24488978255254        0.21002050550129
C           33.15046770889245        2.48402197115053        0.48452033295404
C           32.18666799914617        3.42558769371888        0.64793582967827
C           30.92034938242877        2.77138298023867        0.46330282438620
N           31.13847379489780        1.44439191900626        0.20831401071433
C           29.66752890698702        3.38821338091312        0.56285955061526
C           29.64711050259082        4.84607531509832        0.82813401451879
C           29.03722230979270        5.34316364902284        1.98455021702695
C           29.00650130374005        6.70243741089600        2.23594460284206
C           29.58694962811547        7.57551333800449        1.31994302939411
N           29.55075023094318        9.00381168999396        1.57483108048865
O           29.00466110882841        9.37745622402308        2.58156232927674
O           30.06783694366807        9.72895690276019        0.76369415414747
C           30.19942166887600        7.10190494781394        0.16286612767572
C           30.22910217345485        5.74015022829306       -0.07602494102622
C           28.42696121741398        2.74976439439635        0.43470633269577
C           27.14259204761791        3.39876170536963        0.48141585601365
C           26.20223748812617        2.43827393422950        0.30299895427699
C           26.89937584761765        1.19395978630767        0.13422782071382
N           28.24446931074690        1.41722044959683        0.21243576768137
H           25.20683790451987       -0.04698957072314       -0.08217684291842
H           25.17769845113370       -2.64723036634906       -0.44004579789591
H           27.06867194335831       -4.52255971626642       -0.74471948735537
H           30.76005351854863       -5.35976642050127        0.92417467421513
H           30.75949815248780       -7.80371322889354        0.48885522990351
H           28.71469453726359       -7.14599899802911       -3.21886228878856
H           28.72338356472275       -4.70084676500922       -2.79141780371895
H           32.40651466082019       -4.44779036125506       -0.92594873601312
H           34.26990280601596       -2.55527185429903       -0.57137088553122
H           34.21950235913535        2.60837441015755        0.55092239999173
H           32.32013740470740        4.46850875298164        0.88603945352941
H           28.59896219958851        4.65258523291801        2.69566174753387
H           28.54044950770374        7.09551104930375        3.13147847273359
H           30.64029635939522        7.80234677955800       -0.53620892652340
H           30.69008442262375        5.36059155589641       -0.98048113579957
H           26.98480534191820        4.45639622908554        0.61905946357667
H           25.12993436861059        2.55167658288667        0.27764838556882
Zn          61.81407710266018        0.04831754766697       -0.01701883965346
C           65.22338309764453        0.08569447374934       -0.05914085583192
C           64.59494607305810        1.29296585063435        0.21955864927225
C           65.27087873227832        2.52484514014221        0.51693254765348
C           64.31355715130424        3.46188738408623        0.72701766889015
C           63.03965082536551        2.81525436690816        0.54816737102791
N           63.24549539455078        1.50039037315225        0.25283605350800
C           61.78766081004594        3.42887112222302        0.68566663076357
C           61.78066593201267        4.87948141260029        0.98868506591299
C           61.20306786966400        5.35339963351949        2.17083722594890
C           61.20706898850128        6.70486247133327        2.46367519918142
C           61.78894799692018        7.59329806624929        1.56347580646447
N           61.79824030512926        9.01255882012052        1.86671474453878
O           62.31890288949995        9.75030245467593        1.06928578240202
O           61.28642318939716        9.36636546172389        2.89826553057842
C           62.36406201650149        7.14331845425433        0.37814749192354
C           62.35931574343233        5.78932863311580        0.09785682799335
C           60.54620569126997        2.79370232776156        0.56184337383749
C           59.26742854065008        3.44416266426869        0.64653219523515
C           58.32064328586342        2.49046416741200        0.45623094438472
N           60.35218441323037        1.46300480110057        0.30684854659588
C           59.00993725967925        1.25149128843883        0.24451735586844
C           58.37750030871226        0.01274796664536        0.01521821987933
C           59.03089521778089       -1.21353487622351       -0.22190628654861
C           58.36352711390303       -2.46723640681220       -0.41630562908679
C           59.32616263774795       -3.40204134345146       -0.62043978985436
C           60.59251842437103       -2.72479568509311       -0.56326695503234
N           60.37581988182353       -1.39753798849125       -0.30859727353140
C           61.84431921782864       -3.33357382882469       -0.71279655736962
C           61.86209437805203       -4.78514988445692       -1.01066553341284
C           62.48121632706869       -5.67842259243792       -0.13032602550825
C           62.50886646745741       -7.03317430379398       -0.40555314196142
C           61.91613240470603       -7.50055212509543       -1.57536659858548
N           61.94934899383326       -8.92053129489455       -1.87349999144607
O           62.50319918505078       -9.64362081489758       -1.08503986464868
O           61.42136515268079       -9.28973845498691       -2.89141633530988
C           61.29424882667911       -6.62876870315749       -2.46503529653491
C           61.26766913081487       -5.27647613768100       -2.17726043113953
C           63.08551254908949       -2.69230828327846       -0.60710825165360
C           64.36841283520059       -3.31124277860298       -0.81694104883605
C           65.30985326359669       -2.35273579797325       -0.63360961942273
C           64.61472290225363       -1.13537128254096       -0.32112323865264
N           63.26974597673084       -1.37249938664134       -0.31968725858200
H           66.30874209226859        0.09764499817867       -0.07313969604963
H           66.34183203742433        2.64358240664721        0.56489937993841
H           64.45363686634295        4.49736313509385        0.99272429914032
H           60.76594033704055        4.65060051231574        2.87056585292208
H           60.76956729597941        7.07990332875864        3.38108261630090
H           62.80577042452921        7.85537657847303       -0.30855456551733
H           62.79352249168794        5.42796519204656       -0.82708593756085
H           59.11460903192434        4.49788373014608        0.81539899947954
H           57.24894977061725        2.60931701131274        0.45125088858179
H           57.29480878656295       -2.60814553960264       -0.39026856815742
H           59.19205627907805       -4.45945828122856       -0.78194390348934
H           62.92908688970160       -5.30375611221100        0.78273341824741
H           62.98194644776089       -7.73256110506240        0.27322941434715
H           60.84378973219621       -7.01708874852154       -3.37056685682982
H           60.79926530391275       -4.58629137851475       -2.86925961302631
H           64.52442151410065       -4.34409059896223       -1.08400471509146
H           66.38158669779710       -2.44790334016726       -0.70892822297266
C           38.34175882181098        0.03986384864636       -0.00383933562187
C           37.11308118072745        0.03919372495911       -0.00672933851256
C           35.76847757254254        0.03448478690571       -0.00955277776800
C           34.54436100276277        0.02906731612450       -0.01335773099577
C           39.68626303256652        0.03822503827956       -0.00308190020184
C           40.91056255610290        0.03399001148349       -0.00338145770241
C           54.40313393537191       -0.01368134969144        0.02436230626537
C           53.17456270720761       -0.01714011587087        0.02217028742888
C           51.83013403911107       -0.01762479995907        0.01997409844817
C           50.60586301363509       -0.01411411091114        0.01565085648679
C           55.74766948303870       -0.00768069119549        0.02400070728099
C           56.97179050738718        0.00001666025336        0.02203286027587
Zn          45.75811749077894        0.00960377459143       -0.00036595987682
C           42.31574547250099        0.02722888921280       -0.00366343977786
C           42.95412549210947       -1.22814123613462        0.05802102176354
C           42.27063203923338       -2.48392928333813        0.15391919518830
C           43.22170522350979       -3.45212942166114        0.18338019535040
C           44.49616691414825       -2.79509453522792        0.09562355956358
N           44.29704986222602       -1.44257663466908        0.03162065480359
C           45.74060913662519       -3.43617925056752        0.10502806249590
C           45.73312944045274       -4.91791034962721        0.15166969329514
C           46.31605670998616       -5.59347255331506        1.22839775481051
C           46.30925712898459       -6.97535183733481        1.27901910886312
C           45.71890652480734       -7.68992133416279        0.24032795454510
N           45.71112069054537       -9.14083365148779        0.28705098246367
O           45.18600278707763       -9.72564728446257       -0.62566079028149
O           46.23087267354256       -9.67124739613059        1.23547066154782
C           45.13571672049854       -7.03715678017483       -0.84216978462730
C           45.14307728017724       -5.65483434452644       -0.87995907153573
C           46.99157053936512       -2.80849058956987        0.07580662303993
C           48.25926729437140       -3.48265744293514        0.02958869828239
C           49.22026005162095       -2.52422208908316        0.00223502509222
N           47.20451415500249       -1.45671896347074        0.05800375012420
C           48.54961445779084       -1.25806998675680        0.02107928003022
C           49.20072504917485       -0.00785252771314        0.01070399989986
C           48.56209930309782        1.24881356550295       -0.00578345698626
C           49.24523912282580        2.50825457007775        0.01394142181520
C           48.29418078613932        3.47616656373787       -0.02431492954510
C           47.02013062337257        2.81460094776650       -0.07724502634386
N           47.21934775469072        1.46087249501821       -0.05298348055727
C           45.77587200087700        3.45507837250728       -0.11673566554322
C           45.78491360708326        4.93633316887098       -0.17455360316591
C           46.38326316058210        5.59619008745616       -1.25265513032780
C           46.39275941101069        6.97753084771941       -1.31494777359766
C           45.80308832760183        7.70755238284282       -0.28665384574193
N           45.81232716585454        9.15798958267233       -0.34562669874305
O           46.34416833273574        9.67433501291618       -1.29510871704957
O           45.28806685017659        9.75652899888420        0.55865340088719
C           45.20473862035497        7.07062553480826        0.79699620992517
C           45.19610091862270        5.68865763503642        0.84658313175424
C           44.52482490568350        2.82694270621212       -0.10842240985550
C           43.25721162973057        3.49640802343504       -0.20159945689463
C           42.29629629779698        2.53809803980082       -0.16845904483191
C           42.96690618742022        1.27587990303329       -0.06660567514339
N           44.31189161762084        1.47678109551666       -0.03881505326380
H           41.19987313437547       -2.60204018352108        0.20022708627689
H           43.07381220148572       -4.51636375987536        0.27072162431858
H           46.76160059675500       -5.02553945801685        2.03682747297779
H           46.75256082035050       -7.50694672699063        2.11243161714136
H           44.68671762729248       -7.61636949003872       -1.64004595084014
H           44.70311241684419       -5.13518812277008       -1.72317349159827
H           48.39621086917089       -4.55168230269236        0.00665552059601
H           50.28981428113328       -2.65571823870359       -0.03504038807877
H           50.31572189042971        2.62929862116613        0.05887678187629
H           48.44174463642961        4.54382870847116       -0.00407926430287
H           46.82814473298099        5.01635670933388       -2.05296873857004
H           46.84829052214912        7.49692725510578       -2.14945530152733
H           44.75667395874571        7.66166361774513        1.58667998713548
H           44.74454246008564        5.18136385411862        1.69117924296447
H           43.12011323380727        4.56160894679841       -0.29449909506154
H           41.22683593606484        2.66677023251654       -0.21674007440280
