140
 energy: -234.774384555796 gnorm: 0.000283569349 xtb: 6.5.1 (b24c23e)
Cu          15.03232416711476        0.02828718488125        0.00228283376271
C           11.62974243453428        0.09403634352791       -0.06659584369785
C           12.25447865208120        1.02006624688423        0.75590787904614
C           11.56946225324725        1.94570574812970        1.61118060554006
C           12.52115760478788        2.67007374589717        2.25168986227872
C           13.79662576120549        2.20422352679244        1.78056896820428
N           13.60343252103296        1.19694928735769        0.87968164933053
C           15.03701296469592        2.70003425487458        2.19463248820359
C           15.04595267114400        3.84100218143191        3.13988891273955
C           14.44123740599946        5.05564817014960        2.80452413619187
C           14.46761421984634        6.12427413196617        3.68061997172964
C           15.09176674109300        6.00678241880047        4.92874151198532
N           15.14197154228692        7.12352906321330        5.74957340900313
C           15.34342305107728        6.95904576204657        7.18269925257514
C           15.69796966019351        4.79415063643985        5.26951616664619
C           15.67283569369089        3.73140795023998        4.38272212261831
C           16.27372721438627        2.19930255792561        1.78000235846306
C           17.54665523031825        2.76188323238118        2.13190019947219
C           18.49852209668301        2.00124006394529        1.53360466708020
N           16.47085628946009        1.11682875545096        0.96342699574445
C           17.81477181380328        0.97563607499781        0.80580376507085
C           18.45808560224621       -0.02471016782436        0.05515730913305
C           17.80745908689371       -1.00976123421894       -0.70938568402750
C           18.48115551825027       -2.06095589315035       -1.40949740113991
C           17.52482909466839       -2.79747547392971       -2.03047582485535
C           16.25984532418668       -2.19277853171004       -1.72254927006574
N           16.46526778784732       -1.11129852464159       -0.90660758119107
C           15.02189716827237       -2.65366639507493       -2.17754849902896
C           15.02428497448837       -3.80173270162941       -3.11431103003053
C           15.69761179014130       -3.72357959185555       -4.33498116642778
C           15.71821583282253       -4.79404006482619       -5.21253955441828
C           15.06042132222900       -5.98303434215904       -4.88441374341621
N           15.10325148729120       -7.10837773721346       -5.69384005939118
C           15.36455889123676       -6.96468929202149       -7.11945890424649
C           14.38826499072255       -6.06864313621165       -3.65880556879730
C           14.36670496444405       -4.99220472270653       -2.79214838000962
C           13.78592974349804       -2.10923898929480       -1.81465449303772
C           12.51355488109857       -2.52844485180950       -2.33528275831803
C           11.56574735943982       -1.76167847931727       -1.73992955490522
C           12.25088206902430       -0.85855574765266       -0.86096258770921
N           13.59576603273199       -1.08907204760443       -0.92781299550014
H           10.54486973886019        0.11604268946174       -0.08973218383235
H           10.49735000955629        2.01278931991169        1.71072797636242
H           12.37815553721539        3.44306087788065        2.98969399357476
H           13.96669992317376        5.16702054807218        1.83563672472050
H           14.00627784460987        7.06589157699440        3.40185628632068
H           14.41957990160608        7.80049057083965        5.53588532901433
H           16.35409254839793        6.59881074343506        7.37895716527633
H           14.62026072023252        6.25742307591186        7.61415365757989
H           15.22384669658615        7.93479178941497        7.65361068567439
H           16.19341844263204        4.67355827206168        6.22504829888197
H           16.13285869985498        2.79073490156744        4.66574793145807
H           17.69099703511819        3.63890664478301        2.74175792207995
H           19.56945506325833        2.12223003416707        1.56878827637465
H           19.54842967080809       -2.21492906474073       -1.41093687619155
H           17.66052162598957       -3.68358711396062       -2.62908174831350
H           16.19845989755394       -2.80111359006228       -4.60845271782035
H           16.25054352391835       -4.69786526520714       -6.15083996626012
H           14.35084296791023       -7.75872274077087       -5.50230461979432
H           14.67847409041203       -6.24813550017339       -7.58558810061970
H           15.23631295261684       -7.94176560306650       -7.58532991834062
H           16.39170488321832       -6.63447361560061       -7.27946784914651
H           13.88580080038730       -6.99188275638596       -3.38982242711488
H           13.85411946771481       -5.07911847329735       -1.84027718864076
H           12.37089109159703       -3.30109688093703       -3.07372899856345
H           10.49689996376088       -1.78676757347040       -1.88403831170043
Cu          33.62487176796879       -0.01120946193164       -0.02854904621898
C           37.02750934697489        0.04276010211519       -0.10432205943265
C           36.40387560492542       -0.96214190150005       -0.82928475735231
C           37.08993281422062       -1.99843015481180       -1.54553533644538
C           36.13904689685729       -2.78158773925637       -2.11402332707563
C           34.86306574036903       -2.22078798125337       -1.76309058553553
N           35.05512007096017       -1.12198066056457       -0.97616657720033
C           33.62326339659633       -2.73340967508675       -2.15785953439004
C           33.61546361389631       -3.90476997241823       -3.06527305613042
C           34.21936502643974       -3.84147271451910       -4.32414284029930
C           34.19323724626410       -4.92926969744188       -5.17633209278099
C           33.57033453912607       -6.12237014270354       -4.78942171781732
N           33.51991318926912       -7.16649946308952       -5.70080676695770
C           33.31861186575584       -8.52957292698053       -5.22864137220610
C           32.96542587127723       -6.19153392829765       -3.53109356439659
C           32.99010325137093       -5.09450106218102       -2.68706196425564
C           32.38598776860427       -2.21996366628147       -1.76090002797114
C           31.11371154880580       -2.68677972707139       -2.23426534359114
C           30.16094609147601       -1.93721715769731       -1.62353676704609
N           32.18759613051686       -1.18693147225751       -0.88290645073108
C           30.84350421359276       -1.00288563706261       -0.78078343626243
C           30.19906619642499       -0.05244062568396        0.03118722581504
C           30.84857959323976        0.90885436223922        0.82632958671485
C           30.17367500771022        1.82099534781358        1.69897423747310
C           31.12913188112162        2.58794863265976        2.28337094376813
C           32.39477855962922        2.15631415092314        1.76136579699701
N           32.19061741752407        1.12412837736941        0.88359641117257
C           33.63218754531181        2.70145479368028        2.11302610094327
C           33.62855469977229        3.86616864143365        3.02891104954993
C           32.95325598672989        5.03935818348891        2.68661416411833
C           32.93182896244189        6.12951342258421        3.53954529815812
C           33.59099719870554        6.07008179009527        4.77081622117255
N           33.54793310764381        7.10599274563891        5.69192526007013
C           33.28518642213292        8.46540683434845        5.23991339615207
C           34.26495579129980        4.89366278860263        5.12159388816241
C           34.28711960968982        3.81275183470839        4.26054306079563
C           34.86877459386117        2.22897777322069        1.66199829743916
C           36.14063652329607        2.82922872061608        1.95829508436785
C           37.08931945977461        2.08098665214098        1.34116405092138
C           36.40523320492868        1.02570563267351        0.65123972686057
N           35.06011068350069        1.14074023666468        0.86041546526096
H           38.11240805052933        0.06086653710062       -0.12961424797858
H           38.16212603976385       -2.10983677206197       -1.58826909230363
H           36.28283306822023       -3.67011242456518       -2.70771381695755
H           34.69286771874880       -2.91966693361339       -4.64416058675951
H           34.65365894588771       -4.86182614503012       -6.15645836784494
H           34.24178532615387       -7.10505791532741       -6.40854724452648
H           32.30823100868837       -8.64265785051316       -4.83356259160568
H           34.04234029861462       -8.79840794983140       -4.45060966843213
H           33.43736645896374       -9.20129745955275       -6.07883703089766
H           32.47125700308059       -7.09839258887198       -3.20480873751044
H           32.53090421471796       -5.16623702576886       -1.70696969397376
H           30.97047315181442       -3.47353127939954       -2.95706745615627
H           29.09013821549970       -1.99833976239193       -1.73496406762447
H           29.10625753849491        1.85552155626114        1.84798430232109
H           30.99233305898379        3.36508737283376        3.01771848980347
H           32.45152946973509        5.10407229607820        1.72710560377359
H           32.39785843422916        7.02333749333690        3.24125173425560
H           34.30101375950455        7.06204816007205        6.36772106024808
H           33.97001789765970        8.76370161137949        4.43774989836928
H           33.41418525223381        9.13400802325773        6.09107773529295
H           32.25751319558087        8.54860813091948        4.88404560315016
H           34.76842444332996        4.83359345086063        6.08081209669516
H           34.80109167864050        2.90353813792733        4.55296405940570
H           36.28247122171283        3.71886599478242        2.55080346336114
H           38.15811097188000        2.22754857679408        1.33512224771232
C           19.86247695271071       -0.04080230727287        0.06921779967261
C           21.08697276133085       -0.04970992213011        0.07668523498729
C           22.42914414817974       -0.05783437177046        0.08022217561882
C           23.65983191972359       -0.06369474982117        0.08027976098376
C           24.99728583747641       -0.06809357966813        0.07647236878321
C           26.22799188466171       -0.06978980202437        0.06950774167956
C           27.57014774030382       -0.06766670430564        0.05980739419034
C           28.79468388550167       -0.06342333180539        0.04941668460269
