77
 energy: -123.386396632188 gnorm: 0.000180496052 xtb: 6.4.1 (bd6e46d)
Fe       -0.09032540513725    0.16927196423313    0.01610331130403
C        -3.37409083753464    0.62198291874681    0.09006448580830
C        -4.84105612041902    0.82336750622515    0.12431753509768
C        -5.47739590589476    1.54744617921781   -0.87887187573719
C        -6.84796577702835    1.73090955265178   -0.84884547298808
C        -7.59874258214485    1.19956725579915    0.18650100148009
C        -6.97250485295232    0.48044305839857    1.19081037433667
C        -5.60291533978003    0.29000722674831    1.15902573908382
C        -2.90970931745332   -0.67836807415580   -0.07432888761830
C        -3.78573589558587   -1.79499950474604   -0.29214030320366
C        -3.01281969447657   -2.90459429890364   -0.31165445060799
C        -1.66544985763825   -2.46540985512501   -0.10377490929071
C        -0.56874731146453   -3.30886868342268    0.02720824427049
C        -0.76938554988582   -4.76890990928847    0.02757618929136
C        -0.14073255034242   -5.56908526828157   -0.92249205740419
C        -0.33296389498408   -6.93850205480668   -0.92385566083840
C        -1.15018880346629   -7.52816977879252    0.02612341080474
C        -1.77679643231601   -6.74025858629259    0.97721952527052
C        -1.59075106634698   -5.37000687901365    0.97740630850076
C         0.71458469404675   -2.79245310274592    0.16107534573520
C         1.89109119481137   -3.57792308040994    0.38538738266325
C         2.93457338178485   -2.71759091170935    0.37778625491348
C         2.39500771662416   -1.40738157397898    0.14546150140777
N         1.02905703413734   -1.46684141328341    0.06250626138794
C         3.19408955709366   -0.28240937715478   -0.02462703073761
C         4.66226051987751   -0.47779382620307   -0.02899615901663
C         5.27690063778662   -1.21178730653463   -1.03830885241767
C         6.64917589313209   -1.38532321788796   -1.04180284419745
C         7.42323114111654   -0.83411948613534   -0.03436544727882
C         6.81861090094017   -0.10520288146025    0.97613672949529
C         5.44740597942429    0.07528901986318    0.97773653777153
C         2.72279149397958    1.01517162633034   -0.19235513419832
C         3.58937764535881    2.12777397679740   -0.46207682837707
C         2.81566817204393    3.23695819805504   -0.47122240478574
N         1.42597919360599    1.44161306226126   -0.08391061676755
C         1.47771686075667    2.80166742044262   -0.20311590863997
C         0.38719347563157    3.64725746297680   -0.03906743888651
C         0.58687589241507    5.10691095097481   -0.07319797493752
C         1.45135328282571    5.72563857013890    0.82572187630659
C         1.63925351509345    7.09515297730607    0.78829053065507
C         0.97096825788527    7.86464375027700   -0.14944443220261
C         0.10943038131341    7.25751431208767   -1.04790995331967
C        -0.08429973687836    5.88890889604725   -1.00929854427212
C        -0.88911791170954    3.13264287568199    0.15549031745956
C        -2.05588841700574    3.92086795794430    0.41715197594054
C        -3.09908081514064    3.06100481699101    0.45756618369939
C        -2.56869583381474    1.74816740043223    0.21909719568740
N        -1.20690344544499    1.80600442705913    0.08476652972497
N        -1.60949201332147   -1.10370546701715   -0.00841010042033
H        -4.88979993934678    1.95869469889629   -1.68682010614005
H        -7.33216715069772    2.29059568142357   -1.63588310069587
H        -8.66862861168548    1.34522795705129    0.21047506127577
H        -7.55364742460896    0.06577454768023    2.00163090162709
H        -5.11177421449586   -0.26888571751211    1.94235273461656
H        -4.84787776306668   -1.72546910537935   -0.42284292888209
H        -3.31229186549151   -3.92313561792353   -0.46260034613430
H         0.48947518172789   -5.10703865951533   -1.66848883087009
H         0.15616382652628   -7.54851991297776   -1.66939712702135
H        -1.29819812129730   -8.59798719580879    0.02531578571904
H        -2.41298782836943   -7.19571948478365    1.72223439357873
H        -2.07185181403330   -4.75541337112386    1.72436482635012
H         1.90277877914797   -4.63906011147266    0.53975575630108
H         3.97428542585975   -2.93631441379067    0.52339256603679
H         4.67138278425458   -1.63805768102161   -1.82496586788770
H         7.11665180000067   -1.95253447515965   -1.83355597863831
H         8.49442435293427   -0.97185940354477   -0.03686444280842
H         7.41782880941446    0.32505925918859    1.76540503325868
H         4.97291653366203    0.64233476942314    1.76546956984811
H         4.64565364062321    2.05582727421384   -0.63283287019820
H         3.10852640046509    4.25258236817663   -0.65178146577422
H         1.96526222984638    5.12567559671449    1.56266378080396
H         2.30976017292067    7.56446306324754    1.49354597803091
H         1.12113103450373    8.93371853672868   -0.18002602085037
H        -0.41258319566509    7.85302220626403   -1.78279188872138
H        -0.74871890764433    5.41285696729584   -1.71571886807455
H        -2.06135116262828    4.98345977992962    0.56153347805846
H        -4.13246242637663    3.28169861744391    0.64045951724109
