232
 energy: -406.495344520536 gnorm: 0.000438322718 xtb: 6.5.1 (b24c23e)
Zn          33.19688512819707       -0.02079244730463       -0.01689047028501
C           29.78716820246460       -0.05475363856782       -0.04521078031591
C           30.41680185621264       -1.28671316077539        0.08469745876365
C           29.74270379208120       -2.54571808788809        0.23788058957217
C           30.70154468518417       -3.49800630497872        0.35354631432031
C           31.97450772817892       -2.83250935052793        0.26356717786918
N           31.76629805859503       -1.49367126981663        0.10683546215759
C           33.22573975858919       -3.45387695749524        0.35876739810586
C           33.23680110863657       -4.92812397503194        0.52046967912172
C           33.77044137945492       -5.52919071291244        1.66000533203053
C           33.75356921927736       -6.91084667127202        1.76695402921592
N           33.25320147839260       -7.70451694291918        0.82536728708858
C           32.74527113586780       -7.14004513349168       -0.26562228760056
C           32.71205673114939       -5.76839947253588       -0.46097926421746
C           34.46517167376008       -2.80665900875457        0.31442649303119
C           35.74480944768550       -3.45841900192578        0.36793520932839
C           36.69117596809099       -2.49028269273472        0.27144261759991
N           34.65895121334950       -1.45814033425024        0.17612639574532
C           36.00090119295619       -1.23958192204530        0.15007338106069
C           36.63207848559482        0.01210521480332        0.00435719495066
C           35.97889230357499        1.25200384092266       -0.14413866533831
C           36.64643599315834        2.50882675819536       -0.31733098730375
C           35.68287670380750        3.45887799294448       -0.42363667533180
C           34.41536594457101        2.79142393288813       -0.30869286750649
N           34.63325990720061        1.44904855280911       -0.14908243739027
C           33.16423368272405        3.41387353531154       -0.37897501087084
C           33.14886575276212        4.88934356766977       -0.52558239744861
C           32.57812120114917        5.50249204787268       -1.64062684671553
C           32.58572030226465        6.88543740558305       -1.73044383046551
N           33.11192847685709        7.66959988037808       -0.79497652057677
C           33.65731058902870        7.09369970601988        0.27173876346529
C           33.70158953380604        5.71994973388937        0.44892011952127
C           31.92411118609468        2.76579504452717       -0.32084135481811
C           30.63931109540080        3.41383226444218       -0.35056341566913
C           29.69798013645942        2.44141632489345       -0.26169867281111
C           30.39475272070128        1.18915932378415       -0.16604030144717
N           31.74025315016075        1.41968320753440       -0.19946291031893
H           28.70156992478747       -0.06392634148042       -0.04079010971606
H           28.67157206515357       -2.67186908799231        0.26014708795385
H           30.56410049235810       -4.55742635301800        0.49955923935040
H           34.17844740877135       -4.92164306656223        2.45906065158014
H           34.15889324536199       -7.40109138455833        2.64737248829707
H           32.34683316999347       -7.81427378830265       -1.01820782805869
H           32.29814326698838       -5.35357230174783       -1.37242186973986
H           35.89775097634660       -4.52206469730517        0.45459859654658
H           37.76336018409718       -2.60563923436406        0.27438332261903
H           37.71619941267193        2.63887772222375       -0.35759807923685
H           35.81652564131758        4.51716074022323       -0.57990624940867
H           32.14831028389304        4.90345174309385       -2.43469833662367
H           32.15018620357409        7.38475492857394       -2.59112590613759
H           34.07709000637342        7.76023152819969        1.01958700226225
H           34.14530202601853        5.29578646292439        1.34185670693722
H           30.48223010330020        4.47841801065373       -0.41790878030788
H           28.62484226517652        2.55109081019241       -0.25291641296879
Zn          81.35582999730818        0.03294929763366       -0.01749416354960
C           84.76527825381713        0.04967382283044       -0.06785707993651
C           84.13737644758001        1.26664600274836       -0.30408891048277
C           84.81338914564320        2.51364243014713       -0.52977148685979
C           83.85600327693015        3.45928124844550       -0.69953417915522
C           82.58201958198272        2.79890920869954       -0.58886798977442
N           82.78819797138281        1.47326214836202       -0.34257001611786
C           81.33155795217198        3.42174492339193       -0.68502375421945
C           81.32170176038775        4.87797695251864       -0.96555587682627
C           80.78222248731402        5.78748553003790       -0.05641854369863
C           80.80007091382612        7.13946139576663       -0.36049755592676
N           81.30692486447096        7.62131197913622       -1.49089361912187
C           81.82039428329294        6.76112014563361       -2.36456382646755
C           81.85297079004712        5.39267899880640       -2.14770318094450
C           80.09125715084623        2.79126635427889       -0.53893300125755
C           78.81252591613173        3.42957554276317       -0.68884494225956
C           77.86490395869301        2.47803950659339       -0.49159302582034
N           79.89575815635123        1.46385733294525       -0.26521158816297
C           78.55358999491114        1.24893058507419       -0.22656620662378
C           77.92089583748887        0.01482666199013        0.02516114293297
C           78.57256319562876       -1.21116762421395        0.26698478676498
C           77.90280516707892       -2.45882401901316        0.49057158766593
C           78.86489142491257       -3.40013327471138        0.66562900261641
C           80.13376967829355       -2.73394309252790        0.55889949302770
N           79.91790992820002       -1.40500565503630        0.30882325400506
C           81.38396827940940       -3.35369554097012        0.66115160021849
C           81.39795803947294       -4.80758954029776        0.95252320849162
C           81.95302405257942       -5.72076886379058        0.05633131444549
C           81.94377987945384       -7.07009066546693        0.37224680836037
N           81.43037326541848       -7.54631483220182        1.50209490597620
C           80.90048980645119       -6.68291240298452        2.36273124040234
C           80.85912876393259       -5.31668061388549        2.13377808456062
C           82.62469817290861       -2.72155303029737        0.51178121339251
C           83.90884685995367       -3.35362999155548        0.66328009133595
C           84.85140811943191       -2.40062635576977        0.45597620484240
C           84.15611809298103       -1.17350304385905        0.18479573104726
N           82.81026296560511       -1.39990898885692        0.23011806454355
H           85.85089360612201        0.05742330075271       -0.07059254526488
H           85.88472043129622        2.63894406014878       -0.54659562242857
H           83.99523000874218        4.51435356498761       -0.87278974180659
H           80.36887796479363        5.44167462315966        0.88361057883013
H           80.39013110101574        7.86672889177137        0.33433575184831
H           82.22402170887355        7.18437497152630       -3.27979371291287
H           82.27129461620474        4.72837853200351       -2.89457951038150
H           78.66097702301371        4.46986754622008       -0.92771709879843
H           76.79290167592602        2.58970064354819       -0.52650548901450
H           76.83262907754546       -2.59110017474861        0.50313378521662
H           78.72904807197094       -4.45556512655717        0.83837336526445
H           82.37186257460189       -5.38001292585935       -0.88314481675609
H           82.36695107350413       -7.79980803120400       -0.31201993101196
H           80.49102297136183       -7.10162048077225        3.27748418187495
H           80.42826884572915       -4.64954174770880        2.87093702518336
H           84.06468876744505       -4.39161352618508        0.90999494411858
H           85.92451845770476       -2.50598476339674        0.48860513922405
C           41.83471756987704        0.03129098702108       -0.03187848678311
C           40.60648832217611        0.03159042617659       -0.02036582839493
C           39.26179141102391        0.02961957074349       -0.00891936256005
C           38.03796955861306        0.02228201970949       -0.00423984842492
C           43.17929782960294        0.02745227115099       -0.04102589895354
C           44.40328653983331        0.02483956142744       -0.04776097687629
C           57.89146746126939        0.01979381389958       -0.02205910594645
C           56.66273345607014        0.02154315727313       -0.02135057653284
C           55.31892385587200        0.02382981522388       -0.02238920262093
C           54.09449150595715        0.02439544122346       -0.02380365982424
C           59.23528155768572        0.01621263237063       -0.02288901202932
C           60.45971200694721        0.01212508900468       -0.02396264970177
C           73.94688412567618       -0.00200899672523        0.01170975164542
C           72.71858068065386       -0.00340004932460        0.00224760509707
C           71.37424602209187       -0.00429095219448       -0.00714095015625
C           70.15019599290963       -0.00450207657889       -0.01488434564271
C           75.29138824278402        0.00071199373432        0.01861737481044
C           76.51524982455956        0.00475389507180        0.02454864048234
Zn          49.24897502790714        0.01836944599208       -0.04278693734477
C           45.80861119414586        0.02018605128561       -0.05006751180154
C           46.45009417889369       -0.87963931781799        0.82492487544263
C           45.77014948114070       -1.76283486566879        1.72556835895458
C           46.72445618645649       -2.46014163046318        2.39361846882366
C           47.99728182261186       -2.01440388151860        1.89964616225991
N           47.79362581885315       -1.04727734024994        0.95222691923539
C           49.24275085285542       -2.47599616946027        2.33965439053629
C           49.24020479300959       -3.54599007949970        3.36694136551248
C           48.68329532727793       -4.79818492660177        3.10946946680148
C           48.70688130555364       -5.76568488716324        4.10156928772646
N           49.23534003187395       -5.55840629629928        5.30343542430866
C           49.76629021127911       -4.36675791758419        5.55812588446688
C           49.79465548336648       -3.33837894306743        4.62953524803153
C           50.49038087298386       -2.01922030857911        1.90133828058449
C           51.76068282185575       -2.53681125227561        2.32705155955240
C           52.71871705978909       -1.83862129737033        1.66522058865176
N           50.69942062344636       -1.02794395204476        0.98010927771762
C           52.04356285709599       -0.89545669167813        0.82378958508230
C           52.69008289120173        0.02352292801320       -0.02795744381656
C           52.04786950120197        0.94040264118708       -0.88521234019876
C           52.72719802477423        1.88544834456790       -1.72109219349957
C           51.77276920809953        2.57793468557704       -2.39402875069187
C           50.50056182360317        2.05521151379881       -1.98042939182243
N           50.70474518538759        1.06708945533634       -1.05476278031038
C           49.25546419227177        2.50488107952040       -2.43334474628450
C           49.25985113975161        3.56751868518702       -3.46809550143909
C           49.83239838895969        3.35354064256221       -4.72160141417790
C           49.81115801961234        4.37472380412007       -5.65826549217215
N           49.27024358125656        5.56529099145581       -5.41985556033322
C           48.72439020512498        5.77862108685646       -4.22685646609963
C           48.69280367401365        4.81859813862796       -3.22772690443301
C           48.00752402251979        2.04263289280994       -2.00090003886337
C           46.73728787647746        2.48430573042075       -2.50515538414874
C           45.77943317456418        1.79265509383955       -1.83625315746272
C           46.45464980631329        0.91531757300169       -0.92644150339071
N           47.79887311827327        1.08139423465065       -1.04854449397137
H           44.69928842458737       -1.83054192001880        1.83278564310393
H           46.58037815624086       -3.20264210901120        3.16177541208546
H           48.25180196474424       -5.01650671226505        2.13982185375908
H           48.28315013694473       -6.74963377337572        3.92271321512699
H           50.18794248309339       -4.22687598116147        6.54925151435768
H           50.22791041837670       -2.37886219699840        4.88584829896976
H           51.90046157929871       -3.33986714331352        3.03253117855031
H           53.78913064749064       -1.95142010821155        1.73100941582231
H           53.79767006273794        2.00342687298991       -1.77582284326356
H           51.91612809907360        3.38078819256462       -3.09900711475987
H           50.27435512944349        2.39454285720206       -4.96475212924714
H           50.24726282024346        4.22978817412712       -6.64237529884530
H           48.29284582358355        6.76151558982470       -4.06126354154346
H           48.24751112601834        5.04213579378693       -2.26553533978211
H           46.59715317793230        3.22047513819123       -3.28009986540163
H           44.70911754745620        1.85939857200879       -1.94946580444188
Zn          65.30472969530160       -0.00176495356678       -0.02622062327547
C           61.86410365416420        0.00749427960007       -0.02505467145876
C           62.50616354776369       -0.88532689623961        0.85738751104874
C           61.82683689974957       -1.75893992376077        1.76774539818161
C           62.78129151439821       -2.45907493579152        2.43273051142148
C           64.05344094383000       -2.02476488078952        1.92703111678908
N           63.84924030325119       -1.05978731884026        0.97716027973859
C           65.29867412311759       -2.49695812823232        2.35563468708727
C           65.29737711024327       -3.56873791601779        3.38097649002251
C           64.72634378996393       -4.81522317064358        3.12664949645561
C           64.75363640338514       -5.78600954334230        4.11541411323783
N           65.29860744780683       -5.58710473154232        5.31131929004525
C           65.84272754336232       -4.40082382322107        5.56318976754883
C           65.86869888032750       -3.36979072541294        4.63744676895585
C           66.54620940732376       -2.05009037865646        1.90621838225117
C           67.81605618226460       -2.57855665907965        2.31967001541671
C           68.77387570213372       -1.88277023957928        1.65498943158690
N           66.75485166150234       -1.05646782283887        0.98777698014421
C           68.09887020446901       -0.93076785767248        0.82347268934708
C           68.74518188182266       -0.00539436425850       -0.02097882778514
C           68.10359716862285        0.91904694053871       -0.86983102636588
C           68.78308064575280        1.86745700951068       -1.70175404240211
C           67.82873908189059        2.56270638120633       -2.37200228967935
C           66.55648793498618        2.03845301297173       -1.96049603225163
N           66.76029071129430        1.04711941383810       -1.03854045340572
C           65.31113817950187        2.48785839658013       -2.41353469861613
C           65.31423132071482        3.55489549894828       -3.44369651965924
C           65.88881657078608        3.34928309137677       -4.69762945509388
C           65.86437139113914        4.37501204463238       -5.62929543055029
N           65.31865111539679        5.56226670445492       -5.38561457851906
C           64.77120170515916        5.76781901676615       -4.19194234555663
C           64.74249298415114        4.80278001669500       -3.19763064076705
C           64.06358086001070        2.02235710069188       -1.98404875633955
C           62.79350589781895        2.46072933239608       -2.49147647940554
C           61.83564093852537        1.76867626366177       -1.82295649999891
C           62.51069459009383        0.89507677396762       -0.90948471601641
N           63.85465403804193        1.06214633437173       -1.03035039804902
H           60.75633013396227       -1.81895856242930        1.88287174618088
H           62.63802382564849       -3.19648400006929        3.20595122728498
H           64.28142052098039       -5.02678513634018        2.16157804283129
H           64.31945493390802       -6.76576368849119        3.93865178791916
H           66.27777124455898       -4.26777040510204        6.54946517182478
H           66.31348057267506       -2.41492137175631        4.89138831536166
H           67.95580848982242       -3.38634793218138        3.01972478622036
H           69.84397665399327       -2.00275525712570        1.71258673060069
H           69.85363465688999        1.98469094979101       -1.75671768522130
H           67.97231210236566        3.36794798090600       -3.07422943685127
H           66.33449087615385        2.39317274954672       -4.94530179650552
H           66.30164315381262        4.23650049760824       -6.61384079734018
H           64.33573059662335        6.74818273542539       -4.02188652255286
H           64.29553698351769        5.01977224026521       -2.23469641302093
H           62.65356373898671        3.19502494459522       -3.26823714115956
H           60.76543713351700        1.83370297554395       -1.93814447365527
