207
 energy: -423.499478307424 gnorm: 0.000354413333 xtb: 6.5.1 (b24c23e)
Ni          28.91328905676982        0.07225904245310        0.02006515569601
C           25.52321946553211        0.18980743091003        0.07472456817112
C           26.17427478734723       -0.26343047057245        1.20307588929531
C           25.49813514718426       -0.71930103025049        2.37922246836068
C           26.45540418159262       -0.99247084547709        3.29603512235711
C           27.71555364373330       -0.68680226725708        2.68339958566042
N           27.53454447642189       -0.27972753930130        1.38570087386544
C           28.93513136044338       -0.74139967680086        3.34564694486213
C           28.94601761070516       -1.09896804281074        4.78399991767373
C           28.29348143113911       -0.28766502031352        5.71563986229258
C           28.30129256829433       -0.61637508525307        7.06104102454562
C           28.96140787758618       -1.76723132317935        7.46056907841726
S           28.97812868381523       -2.18389723533226        9.16354279341354
O           28.86005107582608       -1.01005657931317        9.97770291441222
O           27.56430332997019       -2.98135337099963        9.22343177253558
O           30.03235465417865       -3.11158507956048        9.44967299772114
C           29.61898400523568       -2.59012952169639        6.56095058387557
C           29.61057059061502       -2.24817233217403        5.21851788901754
C           30.14384465019784       -0.46384583207885        2.72066327398437
C           31.40437476218741       -0.43660905776157        3.39891175184244
C           32.35034454480137       -0.20993755165609        2.45622228627106
N           30.31358629595013       -0.21534890083873        1.37796908545973
C           31.66585505734160       -0.09548501967404        1.20778886656838
C           32.32552152369487        0.02634071761177       -0.01824934024523
C           31.64255333671241        0.14670786044510       -1.23174290644852
C           32.30105753823671        0.21255986922676       -2.49738266548482
C           31.33834874024647        0.42753797927882       -3.42594470499464
C           30.09493267476795        0.50622091474681       -2.72065055132503
N           30.28981164891285        0.29091648498737       -1.37539118946768
C           28.88209796066565        0.81647270806777       -3.32166179913329
C           28.86504987712641        1.13398112945055       -4.76923671073809
C           28.13473287487334        0.33799302079641       -5.65504582313952
C           28.10801513479488        0.63417850285363       -7.00791428406864
C           28.81582230441781        1.73536019474800       -7.46137836186784
S           28.77047075324467        2.12737103391698       -9.16979207441264
O           29.04512150145997        3.51790024600851       -9.38559761882807
O           30.07627942060989        1.28460235610978       -9.64175544255012
O           27.61120205958300        1.55474213150093       -9.78686044247963
C           29.54572819199744        2.54575104961281       -6.60695735565565
C           29.56960677120802        2.23741134428613       -5.25678487612163
C           27.68266466470603        0.85149726007147       -2.62190658022848
C           26.42725191732456        1.23302182684044       -3.20091825023965
C           25.48628767688981        1.06114527520862       -2.24367657353408
C           26.16769116667179        0.58247491037115       -1.07959236723642
N           27.51826294533702        0.49155921823343       -1.30839909401302
H           24.44057256916342        0.23224317261734        0.09350124963668
H           24.42790739835092       -0.81326609621751        2.47097177251731
H           26.33279262535681       -1.36866175585547        4.29864000067033
H           27.79201261076738        0.61356861291585        5.38279666912795
H           27.80888022756278        0.01084179315780        7.79350051086474
H           27.37503016779543       -3.25812807857804       10.12826051481080
H           30.12967135324217       -3.47918108479738        6.90898766141089
H           30.11150840757930       -2.88243416040399        4.49653044648902
H           31.53729215498633       -0.56783348002268        4.46030135920197
H           33.41822818267515       -0.12894449851686        2.57876371846671
H           33.36406121337746        0.10531610560337       -2.64073964714515
H           31.44979376549031        0.52240746458338       -4.49368042214576
H           27.59481531630416       -0.52366858817185       -5.28018635425168
H           27.54391779162553        0.02543255867931       -7.70328791634222
H           30.30406171804472        1.50516537580738      -10.55313803434775
H           30.07735683246961        3.40590642998931       -6.99412930921492
H           30.12375660358386        2.86557507366131       -4.56917109068641
H           26.29707204696802        1.59015087704958       -4.20949327934715
H           24.42365016508338        1.23444635633877       -2.30160865103463
Ni          66.05333758420316        0.05686970707188       -0.00436608129161
C           69.44437677643907        0.18160067438464       -0.01844947117108
C           68.79067521128151        0.18434028657021       -1.23289680935977
C           69.46466728556335        0.20300664739780       -2.49530519041308
C           68.50576879286635        0.29435112170880       -3.44587279940008
C           67.24674719932889        0.34643016853092       -2.76109359610880
N           67.43004116275719        0.23789565656197       -1.40577204355168
C           66.02562079033305        0.53709136582836       -3.39462996594371
C           66.01397899215038        0.74389179979880       -4.86234418783831
C           66.65817991452028        1.85061796163573       -5.42102799993257
C           66.65152786753985        2.04965448883940       -6.79162427722306
C           66.00096032633589        1.12651335013319       -7.59434991472609
S           65.98722708504495        1.37681617172347       -9.32959322645499
O           66.10397034466838        2.77018166884148       -9.64480757555554
O           67.40210874682585        0.66000915636445       -9.68025540252120
O           64.93573736654317        0.62206140427265       -9.94508409463181
C           65.35154405542114        0.02111326256441       -7.06968668222175
C           65.35871299600957       -0.16453078386844       -5.69685360307642
C           64.81707262179391        0.55248656440963       -2.71089277549480
C           63.55404395107839        0.81716202782071       -3.33098718132485
C           62.60950818447277        0.67105914080017       -2.37121309730249
N           64.64994228480550        0.28544603070752       -1.37137206185985
C           63.29736007669213        0.32363718352649       -1.16849560901350
C           62.64050286857154       -0.01110571882990        0.01865520487966
C           63.32571743949560       -0.33429327872729        1.19298576138087
C           62.66918721372131       -0.73128209433926        2.39770651480955
C           63.63341556505618       -0.86733982685329        3.33939438437895
C           64.87592121800952       -0.53926597897543        2.70823487423888
N           64.67883496588311       -0.25125670070155        1.37699390101653
C           66.09049851923695       -0.47405877605718        3.37820747000707
C           66.11069665363262       -0.70898273404726        4.84148580763736
C           66.83703869525841       -1.77821054688400        5.37142184110131
C           66.86798495283874       -1.99816182753705        6.73864846905293
C           66.16825666744177       -1.13557338282545        7.56661784449125
S           66.21991406048467       -1.39625901811950        9.29977086654769
O           65.95736703665409       -0.17930126961086       10.01091603067379
O           64.90782844616891       -2.34366827957017        9.43726798414188
O           67.37558081550222       -2.16320870881024        9.65866324589552
C           65.44205140536090       -0.06475219727147        7.07112377275304
C           65.41393459875718        0.14293392166460        5.70190562644006
C           67.28971682544443       -0.19082700655005        2.73707207056823
C           68.54742226944458       -0.05527397878040        3.41291344827372
C           69.48707462365641        0.13213748562727        2.45735550197741
C           68.80246754382392        0.11944447466311        1.20053576603914
N           67.45159404166230       -0.04348322725477        1.38282962448613
H           70.52714275990373        0.22505858998976       -0.02248218514688
H           70.53469865686328        0.15044665251603       -2.61740848924402
H           68.62647011982521        0.32229216105364       -4.51658025857214
H           67.15261958752758        2.56557437423481       -4.77384130185067
H           67.13774210203908        2.90956319995645       -7.23492208770360
H           67.58004723572674        0.71727957139423      -10.62692186895706
H           64.84816417293314       -0.67723004166004       -7.72640203844945
H           64.86441023365212       -1.02737650951367       -5.26599079020579
H           63.41858889552756        1.08586573631679       -4.36581593348995
H           61.54059861057380        0.78217501622474       -2.45503074662387
H           61.60634356524063       -0.88317850973634        2.49418592758130
H           63.52375726179552       -1.16570113723386        4.36916470431837
H           67.37073305670447       -2.44565647135950        4.70495432547960
H           67.42930162977031       -2.82231135927993        7.16057270764992
H           64.67949658179901       -2.46425599974410       10.36704805434850
H           64.91665648031547        0.59674763922161        7.74845366556867
H           64.86270683030783        0.98224350282110        5.29424898157673
H           68.67999782194407       -0.09470360085588        4.48182203496417
H           70.55066625527259        0.26679341024176        2.57240476609292
C           33.73057364730917        0.01752989373173       -0.03176353079778
C           34.95451511971749        0.01145164361907       -0.04029438508735
C           36.29792707077350        0.00620583372923       -0.04663002963106
C           37.52811798729901       -0.00147361473668       -0.04916341910568
C           38.86663429842186       -0.00964367321053       -0.04940257856773
C           40.09689391960718       -0.01618355738140       -0.04812851581850
C           41.44009465451970       -0.02268125386610       -0.04582149160566
C           42.66424887346439       -0.02730155156494       -0.04258343767373
C           52.30082710837550       -0.06356587965083        0.01217607408988
C           53.52489147643973       -0.06601994228676        0.02140199712470
C           54.86839476191467       -0.06594198307530        0.02934455607186
C           56.09857160458877       -0.06277818279730        0.03548922418769
C           57.43740830366260       -0.05770417536190        0.03953801432690
C           58.66754990290134       -0.05166571461344        0.04060421112778
C           60.01125388106529       -0.03975575180815        0.03598520332336
C           61.23509194674817       -0.02863818934560        0.02933921880483
Ni          47.48254485447008       -0.04078285117562       -0.02476832045559
C           44.06852494475484       -0.03134600185840       -0.03775745870813
C           44.74248193823384        0.91977090759859        0.73423967579966
C           44.07703475764410        1.88047107330008        1.55479908880450
C           45.03244935491003        2.71881168011895        2.02470727910203
C           46.27818321040657        2.27038008421660        1.48109540639342
N           46.09339889228254        1.13424141960684        0.72748105336963
C           47.48345410854176        2.94227754596513        1.63989180420662
C           47.47837902052818        4.24215477373346        2.35113982250067
C           48.21136447048961        4.40722077653776        3.52867909471597
C           48.20466975904392        5.62111520624397        4.19629162378784
C           47.46210499753207        6.66536764687519        3.67000454342273
S           47.45935619492267        8.20994370967175        4.50032768091034
O           47.20547602557245        9.28474966325298        3.58591525236864
O           46.12032886192420        7.99738073207585        5.39448367154161
O           48.58605615096162        8.30961689520833        5.37922532718967
C           46.73068855265525        6.53407248993747        2.50054121285528
C           46.73934771022424        5.31439245480934        1.84463283760293
C           48.68966132259727        2.45034649961048        1.15842631121671
C           49.93774958733234        3.14327089144957        1.26193559285450
C           50.89278015106273        2.29782788954638        0.80438077544065
N           48.87319339511117        1.21047712924442        0.59024028812977
C           50.22472600520387        1.09809440720476        0.41227371859742
C           50.89618577302702       -0.05723889230578        0.00081636203911
C           50.21992631097017       -1.20460925893836       -0.42449941942227
C           50.88242705507305       -2.40827177278891       -0.81399084751474
C           49.92682371951179       -3.24050715121968       -1.29405878749848
C           48.68391899355334       -2.53640018182357       -1.20466879146493
N           48.87032140515391       -1.30246029932305       -0.62484992580824
C           47.48001072010609       -3.01511970579374       -1.70495388345742
C           47.47460454849087       -4.30845821374448       -2.42808010795454
C           48.21903708333588       -4.46634604132224       -3.59946776544804
C           48.21141839826817       -5.67319657537736       -4.27959918914707
C           47.45619373698738       -6.71777101951938       -3.77208044946568
S           47.45110696201119       -8.25258748537165       -4.62017765674722
O           47.13834560915799       -9.33143996569060       -3.72909675090757
O           46.15310750202108       -7.99906702484758       -5.56301494195642
O           48.60810894341372       -8.36827705211199       -5.45677492934362
C           46.71386966245979       -6.59384782395216       -2.60878159062101
C           46.72395680906757       -5.38111105185244       -1.94001476186780
C           46.27737401370906       -2.33710959411980       -1.55256244776703
C           45.03324039376403       -2.77612895248707       -2.10746564369140
C           44.07841958344366       -1.93712811072727       -1.63749599250376
C           44.74290570187113       -0.98421277886432       -0.80720734565599
N           46.09270742545836       -1.20491360417028       -0.79286924058704
H           43.01447530359864        1.90058113777909        1.73520417880112
H           44.91426107657475        3.56388309991082        2.68300804491129
H           48.77756827433395        3.57426646175532        3.92876017059324
H           48.76836511137909        5.76035248906951        5.11017853666797
H           45.84644519573302        8.83469614061698        5.78831208435329
H           46.17129849592127        7.37525254314361        2.11081340871502
H           46.18261703327771        5.19279985397513        0.92280685033933
H           50.05793316700353        4.14710921201690        1.63514397139076
H           51.95659957455440        2.45710417433491        0.73453427493627
H           51.94340947915693       -2.57840088366522       -0.72823262616486
H           50.04314948511801       -4.24253427335551       -1.67334355374202
H           48.79495891435885       -3.63310670560111       -3.98481296509223
H           48.78386876991168       -5.80689850872738       -5.18886078119801
H           45.88122724977616       -8.82359832166840       -5.98421327957960
H           46.14497193765368       -7.43525217391140       -2.23356998620923
H           46.15887592668660       -5.26556621108656       -1.02250328277646
H           44.91546072523094       -3.61621034453771       -2.77219422671460
H           43.01689411486980       -1.95153347184020       -1.82447282919660
