278
 energy: -571.337454039694 gnorm: 0.000464325798 xtb: 6.5.1 (b24c23e)
Cu          43.29832325215437        0.04559755649623        0.00816414592815
C           39.89219015572942        0.10913194906104        0.05831576033299
C           40.52822248211832       -0.20074819606465        1.25080559653162
C           39.85415678553343       -0.52825329655407        2.47485571287110
C           40.81361553447322       -0.76969977170654        3.40171906226099
C           42.08365760813655       -0.58001379035674        2.75403120425690
N           41.87929903272683       -0.24252068909917        1.44751567844367
C           43.32984131336845       -0.74095917850820        3.36375910744378
C           43.34416449481952       -1.08794264236504        4.80648356296283
C           42.81479968197512       -0.20392632430605        5.74984248006298
C           42.82793557760496       -0.52308706384239        7.09769034731768
C           43.36927207710347       -1.73716581019431        7.48823095799157
S           43.39486352521577       -2.14459550685092        9.19300162646777
O           43.35448341514682       -0.96140308401694       10.00106780694223
O           41.94342541915048       -2.86885235843880        9.28311592029660
O           44.40283613993520       -3.12602419568338        9.46747453954836
C           43.90273306529809       -2.63387584234881        6.57677878790428
C           43.88951940217699       -2.30165448257383        5.23213554153975
C           44.56340958587082       -0.60240494091800        2.72434916323758
C           45.84096985430128       -0.70568230637236        3.37140628368403
C           46.78607983553906       -0.49454114502349        2.42095756728627
N           44.75010476985454       -0.31999209887352        1.39753384446660
C           46.09390835401580       -0.25502721018343        1.19015217532966
C           46.72852452637928       -0.00230629897117       -0.03844793200570
C           46.06825056234290        0.26164930702690       -1.25101538385245
C           46.73307721513837        0.47237445274920       -2.50187800442524
C           45.76852161863879        0.70086903024173       -3.42863386445221
C           44.50674619546008        0.64032017225261       -2.74618767632218
N           44.72163536727673        0.36243282035019       -1.42269396771984
C           43.26044956736516        0.81484560625349       -3.35145655974192
C           43.24365887737958        1.14606646070815       -4.79772868468065
C           42.64509897826382        0.27596371700693       -5.71230880606239
C           42.62417354627650        0.58079118854339       -7.06331617491326
C           43.20559032679373        1.76490695326335       -7.48677768548903
S           43.16838751133830        2.16273870322734       -9.19400707369943
O           43.33713127964251        3.57199082309490       -9.39934300032310
O           44.54857810852420        1.43289664937380       -9.64278649245139
O           42.07205214370144        1.50222074234570       -9.83720056224382
C           43.80233843114912        2.65011930500007       -6.60378152612620
C           43.82069694299808        2.33320003784077       -5.25546472535540
C           42.02778355306693        0.70445179959076       -2.70389931418143
C           40.74716336259002        0.94122361181909       -3.31437924129252
C           39.80730098204245        0.74230334621990       -2.35791761219096
C           40.50435885519119        0.39279084176582       -1.15298432682124
N           41.84964312603445        0.38102167157205       -1.38998852166915
H           38.80747907743319        0.13046520756552        0.07430189835759
H           38.78307023365318       -0.57347800055469        2.59288738347861
H           40.68079633348795       -1.06155907797040        4.43104337852868
H           42.40626569224624        0.74551579604742        5.42394997078153
H           42.43105540187545        0.15946727798312        7.83863340141338
H           41.77511425192301       -3.16786025227414       10.18497628432919
H           44.32275839427734       -3.57179578253503        6.91771903649350
H           44.29317383174538       -2.99270966520551        4.50133032878736
H           45.99132240024506       -0.90002619360125        4.42095195697990
H           47.85822128590460       -0.49300495653912        2.53468889044155
H           47.80131117641303        0.43943123991034       -2.64434994877548
H           45.89566151204795        0.88121925013055       -4.48375960116515
H           42.20524663625785       -0.65021353958953       -5.36121262697477
H           42.16181547891956       -0.08558450612429       -7.78058862225009
H           44.81992228403280        1.74194231710666      -10.51565631087523
H           44.23650445652233        3.57283124287706       -6.96781574322758
H           44.27102479582751        3.01786828620544       -4.54624657524406
H           40.59481465003923        1.23444624817541       -4.34056851611464
H           38.73579926464200        0.82958878078424       -2.44409264651022
Cu          99.14258308447639        0.03855376609143       -0.01138284539285
C          102.54845445134217        0.13137250867296       -0.03409412624263
C          101.91155543844897        0.28218061210769       -1.25630981164469
C          102.58501049044951        0.43507963401526       -2.51434201436345
C          101.62510994061164        0.54884102155662       -3.46488587390066
C          100.35541314473443        0.47766683702638       -2.79337694101484
N          100.56016956290048        0.30879717783126       -1.45447944608313
C           99.10939775267939        0.54524344192988       -3.42032152725697
C           99.09488411357697        0.75900316913848       -4.88875894211596
C           99.61489450513052        1.93521817055165       -5.43440226245685
C           99.60222247004948        2.14058168007184       -6.80420729016761
C           99.07080063765733        1.15440053568464       -7.61938335796894
S           99.04721147336271        1.41011634900602       -9.35348841232431
O           99.08244051900698        2.80919856750153       -9.66260633946692
O          100.50136185473940        0.77590696141736       -9.70350346958640
O           98.04407618714463        0.59722906718014       -9.97601074981058
C           98.54655192234097       -0.02165160064173       -7.10803874354466
C           98.55914885767584       -0.21373233303015       -5.73630515853973
C           97.87656033278670        0.42828114193221       -2.77557752565985
C           96.59851186836977        0.56062767777100       -3.41604393596448
C           95.65398747931302        0.40086616231521       -2.45509727554376
N           97.69096187037542        0.20131791799624       -1.43782238230684
C           96.34699321022589        0.17682627433705       -1.22198548537890
C           95.71274771172526       -0.03808323034464        0.01382885241507
C           96.37391367455990       -0.23115767916555        1.23903775648625
C           95.70990920848608       -0.49466299922973        2.48015614805333
C           96.67491378160773       -0.62065581183970        3.42581658664505
C           97.93608383618026       -0.42474494681310        2.76843206108312
N           97.72069103416025       -0.19745637184056        1.43521484047912
C           99.18240422160554       -0.48393938716550        3.39518288576511
C           99.20070522544539       -0.71079737949159        4.86148948507737
C           99.80066294067960       -1.85718883729570        5.38839136650277
C           99.82433561062162       -2.07342473892847        6.75632941285485
C           99.24421868829474       -1.12996625761964        7.58867417268206
S           99.28652140017910       -1.39073555129408        9.32212232828800
O           99.12344252419570       -0.15643647646376       10.03381772424219
O           97.90468531035324       -2.23073995541141        9.47537215903660
O          100.38217125851747       -2.24471224899673        9.67148810096141
C           98.64573807675552        0.01854858623235        7.09661669893060
C           98.62458994329243        0.22259019952539        5.72667708456397
C          100.41428818702391       -0.34499721985765        2.75198633468354
C          101.69485023398985       -0.34685639629102        3.40661723958728
C          102.63411826730113       -0.17479625507207        2.44440878407825
C          101.93667545525146       -0.05620099022838        1.19578743741689
N          100.59155941291196       -0.15949947258898        1.41134389347955
H          103.63301033647475        0.16202100649864       -0.04092842706297
H          103.65610339793309        0.44274913831029       -2.64038602452625
H          101.75737561983530        0.65979484496925       -4.52907944661892
H          100.01589098179643        2.69853617975064       -4.77782369510499
H           99.99199516366555        3.05324360534193       -7.23723050493159
H          100.66112609066820        0.81182006117008      -10.65444127009459
H           98.13399509330556       -0.76884093960083       -7.77427232201754
H           98.16274026649040       -1.13061363681833       -5.31589323852436
H           96.44739408143613        0.76433638117242       -4.46368548274005
H           94.58163357607171        0.43639038570730       -2.56084737204857
H           94.64184106232210       -0.57927407008645        2.60076419130611
H           96.54853394846855       -0.84008473342891        4.47358976312263
H          100.23973361709415       -2.58762546133795        4.71889469443285
H          100.28801775836610       -2.95750328654599        7.17550603302789
H           97.63048549500422       -2.25435867153374       10.40020450908105
H           98.21255271053029        0.74112390823938        7.77680508038605
H           98.17305470271501        1.12073962333847        5.32172386145208
H          101.84746487934342       -0.45346634984442        4.46849036287933
H          103.70545212399894       -0.12194321469349        2.55662781106311
C           48.13483922128152       -0.01415254252963       -0.05456010509150
C           49.35891481346925       -0.02041219148390       -0.06282851059485
C           50.70233066252901       -0.02510017767166       -0.06836397933746
C           51.93260468672216       -0.02765941758457       -0.06851639346039
C           53.27113299573598       -0.02940875008766       -0.06683461306554
C           54.50148688409064       -0.02924148753695       -0.06396864555110
C           55.84466846880799       -0.02772822896332       -0.06049517901175
C           57.06899909104338       -0.02792435652421       -0.05603324108889
C           66.75385281199823       -0.02830897015804       -0.02862790666864
C           67.97860679828750       -0.02871795705046       -0.02569102505463
C           69.32105217936336       -0.02916247545278       -0.02287057088187
C           70.55189465214477       -0.02877244192275       -0.01989747647615
C           71.88958209068694       -0.02861869602498       -0.01740669586765
C           73.12041696138942       -0.02967234763567       -0.01685009754317
C           74.46286564679538       -0.03054542023999       -0.01653019970717
C           75.68761462547229       -0.03182629180675       -0.01692951908883
C           85.37235424394414       -0.06950212397442        0.01060466798218
C           86.59665846355954       -0.07607060658273        0.01763531959128
C           87.93983845705353       -0.08150308319082        0.02394088584134
C           89.17019539904985       -0.08468363564330        0.02671400192766
C           90.50872849989975       -0.08349909209218        0.03035402081383
C           91.73900145608297       -0.08030379820004        0.03110053113253
C           93.08241455046607       -0.07119970571150        0.02909142514124
C           94.30647294976011       -0.05988452303510        0.02415514942303
Cu          61.91204054849928       -0.02822868960223       -0.04216396795489
C           58.47466841311968       -0.02798875151238       -0.05134667539850
C           59.12148292503049        1.04399981104757        0.58895416848612
C           58.44232965804355        2.10576465805427        1.26888204162401
C           59.39722290530707        2.94629491189003        1.74177205887383
C           60.66657024793577        2.40573424727211        1.34491320969891
N           60.46609383806844        1.24238941410091        0.65192302081084
C           61.90736335696399        2.97371604620853        1.64232781161749
C           61.90175758761791        4.27012567987848        2.36467179582640
C           62.46829502128780        4.37223170940351        3.63739317094449
C           62.45715520614496        5.57912003744817        4.31739517754292
C           61.87740065151461        6.68011728424048        3.70839992981043
S           61.86631282470908        8.21305582289916        4.55975524908418
O           61.75479767932374        9.31128375913687        3.64414929873394
O           60.43593017032131        8.06122638912799        5.31471922519374
O           62.90451878657105        8.24400036330713        5.54585867940811
C           61.31500750135784        6.61219539349133        2.44398704011126
C           61.32769463226103        5.39936926409070        1.77530045770560
C           63.14980446259138        2.42632825457539        1.31630482307703
C           64.41757233770461        3.04868466000366        1.57360841090299
C           65.37471921043694        2.20876832193678        1.10415914808217
N           63.35374876221609        1.22864663546633        0.68472563796264
C           64.69860164176525        1.07414208877724        0.55042842546683
C           65.34899644379452       -0.02865737685186       -0.03258175517699
C           64.70157429478537       -1.13119884635257       -0.61958561820066
C           65.38038467759196       -2.26575004271067       -1.17020113975421
C           64.42559998557377       -3.10491519936644       -1.64581377122991
C           63.15664424988132       -2.48227268799292       -1.39522986124312
N           63.35744623196609       -1.28517315610454       -0.76157594114285
C           61.91591341460126       -3.02895001874441       -1.72884097533356
C           61.91405904356416       -4.32337078389615       -2.45474298602985
C           62.48644597609258       -4.42074428815325       -3.72524635702953
C           62.47776920790284       -5.62485715151818       -4.41009403378762
C           61.89466251075878       -6.72794283501678       -3.80806040180995
S           61.88514758920169       -8.25669198394758       -4.66671603377192
O           61.76050714291588       -9.35883536633528       -3.75763762109391
O           60.46261701854736       -8.09333488930304       -5.43441109725872
O           62.93190478922994       -8.28816893430722       -5.64388198317577
C           61.32705797302141       -6.66492013405731       -2.54573760344202
C           61.33729100590866       -5.45472621743289       -1.87218142444004
C           60.67360819116010       -2.46128775324124       -1.43727837707366
C           59.40629262551379       -3.00146174663026       -1.84105353153409
C           58.44905587092174       -2.16117978661703       -1.37247238591647
C           59.12480899998037       -1.09994119588225       -0.68836125677443
N           60.46966357911305       -1.29845571476052       -0.74444472566336
H           57.37213491132847        2.18530755088571        1.37288009908900
H           59.25801438139877        3.84526338239070        2.32004975696195
H           62.90679798938163        3.49596781792791        4.10041986235373
H           62.89255796898801        5.66951771062498        5.30460117114578
H           60.12998713823938        8.92303533425375        5.62279520059093
H           60.88177548261285        7.49583841316996        1.99243986453637
H           60.90268402320829        5.32657438796171        0.78101373962218
H           64.55402363435246        4.01062881352690        2.04048716630475
H           66.44465689578929        2.34082009903168        1.11987969426556
H           66.45033613579447       -2.39822528408350       -1.17992706448514
H           64.56421621663056       -4.06662221638639       -2.11254908512512
H           62.92737130476822       -3.54279877009365       -4.18276168026036
H           62.91742882385097       -5.71155621123003       -5.39574548537658
H           60.16532465035863       -8.94856496384013       -5.76804821942473
H           60.89149383707171       -7.55018288879769       -2.09964376009116
H           60.90794198736317       -5.38570329791774       -0.87949116612480
H           59.26995608123667       -3.90010027197138       -2.42052576630706
H           57.37939646126414       -2.24061468594007       -1.48192700631822
Cu          80.52986989864546       -0.04580643687293       -0.01132864046013
C           77.09246713102613       -0.03567991347372       -0.01440425996645
C           77.74410892233210        1.03803325552962        0.61901990021115
C           77.06913529985394        2.10627281664340        1.29279177292452
C           78.02730163356334        2.94513460028885        1.76220189265075
C           79.29445452031858        2.39632266207109        1.37047037648856
N           79.08942730127704        1.23058027500649        0.68202046332300
C           80.53718009468382        2.95768000148968        1.67043406293019
C           80.54135942988096        4.25592918178064        2.38969759573318
C           81.10741534736823        4.35463553957467        3.66296132924093
C           81.11928289415643        5.56560559824287        4.33549692886598
C           80.56233190274455        6.67406914436166        3.71880272254719
S           80.59345210408378        8.21491941684528        4.55547122030989
O           80.51537712902558        9.30656369116281        3.62866731837720
O           79.15907886142502        8.11311776129888        5.31049014383299
O           81.63181014702387        8.22499926989557        5.54190899489474
C           79.99646876117433        6.60831175593787        2.45583047743526
C           79.98580234551494        5.39124979940848        1.79459835966662
C           81.77733291211736        2.40207108096417        1.34909512668042
C           83.04780642717560        3.01705790488036        1.61068386760490
C           84.00165620970949        2.17143432745317        1.14507266870178
N           81.97609546606435        1.20313365835127        0.71852381637022
C           83.32084296491469        1.04129003581897        0.58823875614951
C           83.96667142348369       -0.06213518432010        0.00283810051389
C           83.31531831935770       -1.15759845798250       -0.59126277357457
C           83.98987712215938       -2.29161048420857       -1.14787245998024
C           83.03196712960371       -3.12447113591235       -1.62794362142344
C           81.76532129455494       -2.49868311573438       -1.37349829588972
N           81.97021738377428       -1.30551126778309       -0.73415406694027
C           80.52268578752532       -3.04172732412922       -1.70661633464696
C           80.52131948915429       -4.33278339982239       -2.43867263332466
C           81.09436546085605       -4.42182633457867       -3.70959756477212
C           81.10018067519441       -5.62506957785089       -4.39584310976281
C           80.52999948939224       -6.73567796071695       -3.79521140841977
S           80.55173562528731       -8.26641819016971       -4.65032866010328
O           80.43951343902791       -9.36780783395714       -3.73875628277417
O           79.13347508994333       -8.12977483164638       -5.42993818057069
O           81.60718710293125       -8.28232041541715       -5.61853099139506
C           79.95766454198575       -6.67968372891023       -2.53473339764619
C           79.95343913462968       -5.47021553296129       -1.85955648202471
C           79.28271339846911       -2.47418964069351       -1.40695654163574
C           78.01297594614194       -3.01334903272956       -1.80369413840231
C           77.05895642880644       -2.17239865291561       -1.32965981328080
C           77.73910795310873       -1.11147566624866       -0.64954772425700
N           79.08335925032331       -1.31137333417502       -0.71179760288725
H           75.99918068073775        2.19126026919771        1.39487181908126
H           77.89207454997947        3.84814070151224        2.33514034988950
H           81.52995311133139        3.47318363400899        4.13096252958947
H           81.55707764050487        5.65389520013775        5.32182560170942
H           78.87786952993316        8.98681212117054        5.60850659480843
H           79.58045315219090        7.49728819633923        1.99857584849736
H           79.55946076133019        5.32051091625445        0.80073345128106
H           83.18849131554148        3.97826564570424        2.07773776931997
H           85.07227151843887        2.29723128472421        1.16436148158762
H           85.05932145072100       -2.42799166861446       -1.15821242964379
H           83.16720888203240       -4.08410234924634       -2.09983668826035
H           81.52706074601620       -3.53866095972323       -4.16493055838058
H           81.54314377681287       -5.70586125759471       -5.38050926301479
H           78.85514956603754       -8.98995963169570       -5.76722661365190
H           79.53150856738785       -7.57028022258061       -2.09015282660022
H           79.52228115843374       -5.40741788601045       -0.86723928787238
H           77.87316176844111       -3.91200913102434       -2.38231934775932
H           75.98865623704215       -2.25107826266466       -1.43314439851190
