195
 energy: -395.025871061692 gnorm: 0.000489178271 xtb: 6.5.1 (b24c23e)
Fe          36.64144153584231        0.01808276119605        0.01721138786290
C           33.26655715690115        0.15698301903156        0.06236938690493
C           33.91337261114523       -0.32043666636749        1.18506943745479
C           33.24544981124097       -0.82456728160986        2.34703875182724
C           34.20257114763673       -1.05453628666471        3.27727736970730
C           35.45387917013436       -0.67113128288681        2.68899328301533
N           35.26688969254736       -0.27619297883660        1.39183883115101
C           36.66270385463475       -0.60658632600121        3.37461278380935
C           36.68153160503076       -0.92276722633679        4.82053783476193
C           35.90259757521554       -0.18775942988149        5.71793792339146
C           35.92221682254725       -0.48293437838676        7.07115341700131
C           36.72370081706160       -1.52260444939508        7.51401951769492
S           36.75999413707635       -1.89640583882599        9.22670436407164
O           36.36594434733397       -0.75964922608527       10.00545886858493
O           35.54658795984749       -2.97493918387272        9.25604195603522
O           37.97391388610090       -2.57500517467376        9.57244130863160
C           37.50872767884869       -2.26788459987176        6.64931051424472
C           37.48515831556018       -1.96133016795560        5.29895724085601
C           37.85743263820677       -0.25651860135077        2.75651241639260
C           39.10581400582222       -0.08921973096249        3.43956338202595
C           40.05078544318570        0.09919351333282        2.48627752763091
N           38.03326283921508       -0.10139974551741        1.40379767194619
C           39.37811416930689        0.05199305305666        1.22586310610174
C           40.03698655088274       -0.00249200954244       -0.00640172937072
C           39.35529850811120       -0.04480590814682       -1.22725293248138
C           40.00066006533750       -0.13649497062472       -2.49930300181043
C           39.04413571275902        0.07175576033279       -3.43720764683409
C           37.81701756206696        0.29762547572330       -2.73289351029820
N           38.01601545461143        0.16793139613794       -1.38109243217431
C           36.62538007077444        0.68825664613710       -3.33187591506540
C           36.62937903834628        0.98576885907393       -4.78221022108204
C           35.81057241022808        0.27078603656791       -5.65951456667851
C           35.81655715543469        0.55525120037865       -7.01544129889274
C           36.64513061210792        1.56338011373284       -7.48029116063524
S           36.64647855884638        1.94262600683003       -9.19235552230035
O           37.04494705866210        3.30141598035807       -9.41654341891880
O           37.87738450165973        0.98565846548804       -9.64678597371717
O           35.44535561285496        1.46970106730144       -9.81305478055078
C           37.46418407292004        2.29343242967078       -6.63415133011299
C           37.45531134462751        1.99657537003289       -5.28170082622853
C           35.43673422527834        0.82239435561323       -2.62191132705840
C           34.19471545977817        1.26220305970556       -3.19046701581069
C           33.24950277194872        1.10879099046534       -2.23318143104176
C           33.91526810637490        0.58838154121198       -1.07680304334541
N           35.26138480765960        0.47424414509586       -1.30973345324071
H           32.18310776863001        0.18949675443715        0.07425770735272
H           32.18071372905914       -0.97723717115379        2.42286062104100
H           34.08364700730545       -1.44816687188637        4.27370265801777
H           35.29368020051218        0.63119613951963        5.35330017228406
H           35.33106463508819        0.08715366132565        7.77679375689447
H           35.39504920877695       -3.28424135117230       10.15747928439015
H           38.12831361742620       -3.06987647908647        7.03053366832139
H           38.08304352979636       -2.53931456911092        4.60394946094817
H           39.23353211650740       -0.11160980005752        4.50952769690122
H           41.11147484020894        0.24628603186389        2.61121777733744
H           41.05203728859833       -0.32761757984934       -2.64244295709029
H           39.14967820095134        0.06914068911191       -4.50990134197777
H           35.17777445313805       -0.52157248999657       -5.27719185821547
H           35.18618052069395        0.00782121786798       -7.70487250938963
H           38.14457187918057        1.19376245243434      -10.55044988607651
H           38.09038039412852        3.08310945169873       -7.02994530891674
H           38.07918845946658        2.56299246178164       -4.60019535134500
H           34.07418910408041        1.63787122763722       -4.19357836993968
H           32.19324153426626        1.31849932878508       -2.28820876376207
Fe          58.30423126038703       -0.00427505519888       -0.02835800047637
C           61.68900765639791        0.15806162450622       -0.02942409553791
C           61.03964205625719        0.15131939027120       -1.24663875589594
C           61.71540061587962        0.14714216024862       -2.50901346424197
C           60.75906019513320        0.24263132913931       -3.46211481163130
C           59.49926087976923        0.32038976787026       -2.77970421530448
N           59.68310233560535        0.22710993893522       -1.42567519085319
C           58.28048928337537        0.52706704915107       -3.41342798451753
C           58.26859064789004        0.72569447124167       -4.88170743863731
C           58.93779897368149        1.81255087172803       -5.44971820818622
C           58.92597070032836        2.00649120663833       -6.82114715834311
C           58.24405931404628        1.09878044771763       -7.61511800547742
S           58.21914877951654        1.34232816792281       -9.35118644911861
O           58.45686418723375        2.71779219061450       -9.67598266769475
O           59.55280790843024        0.49430387340728       -9.72488330340353
O           57.09055053325179        0.68539479473498       -9.94193780091685
C           57.57061511068685        0.01215646640441       -7.08118546550838
C           57.58436324722209       -0.16919694792580       -5.70802333326307
C           57.07172062840480        0.55956298780850       -2.72971740056707
C           55.80807230616484        0.83061607873995       -3.34908746789154
C           54.86306083963847        0.68194614481893       -2.39058911460273
N           56.90263769860840        0.30207949368289       -1.39206598344527
C           55.55072571745562        0.32818287291396       -1.18769930831652
C           54.90000529971325       -0.01827688460207       -0.00533833050544
C           55.57457240668645       -0.34952547209529        1.16838560041433
C           54.91470473482521       -0.75534922225689        2.37009631542255
C           55.87489801131322       -0.88075408262596        3.31723318255187
C           57.11883944472374       -0.54013207024745        2.69275523653561
N           56.92375009133169       -0.25075598864869        1.36536209913379
C           58.33056667860414       -0.46068686096744        3.36705837264771
C           58.33829541031687       -0.68429808841802        4.83213790266338
C           59.05132033718432       -1.75285648219187        5.38039661060528
C           59.05389401403537       -1.96693734702080        6.74913460911556
C           58.34118284114781       -1.09829384062313        7.55940783187184
S           58.34983899658090       -1.35478838305066        9.29394502638753
O           58.09693383474828       -0.13051599508713        9.99578257729129
O           57.01479219242255       -2.27356005585063        9.40495740938459
O           59.48072306819880       -2.14487716575886        9.68014631467230
C           57.63180138493765       -0.02478318302925        7.04555941339541
C           57.63059586183235        0.17610288445993        5.67523386124423
C           59.53132081924029       -0.17807987073451        2.72880255315941
C           60.79005801085762       -0.04505297232392        3.40488311616562
C           61.73115062102893        0.13176412359177        2.44864253680023
C           61.04728507296243        0.11501779966470        1.19042633604292
N           59.69665142042320       -0.02836227683807        1.37732032034603
H           62.77245700891492        0.19192775796771       -0.03213459854068
H           62.78458611367090        0.07674267505653       -2.62987845234015
H           60.88197430567514        0.25577967773072       -4.53292726040291
H           59.45502059020967        2.51723732164484       -4.80914926455078
H           59.43145457697197        2.85156017613666       -7.27136130842477
H           59.70278584130541        0.50918229445831      -10.67799743609384
H           57.04313558702152       -0.67451263084342       -7.73128807740674
H           57.07205365203783       -1.01800052355789       -5.27032061372583
H           55.67208542639009        1.10276257198901       -4.38299146264900
H           53.79411591700752        0.79350694963350       -2.47507914738521
H           53.85306903023451       -0.92010683023230        2.46028614318940
H           55.76233094956626       -1.18205084828744        4.34592943755431
H           59.59427534929318       -2.42608543930147        4.72739247666547
H           59.60184924875533       -2.79252453219508        7.18558951214557
H           56.76921152860724       -2.39050613880974       10.33086465503907
H           57.09646786501813        0.64211045830211        7.70967789831785
H           57.09034731829468        1.01505603094617        5.25244000633446
H           60.92205339100079       -0.08188232735263        4.47403210904219
H           62.79572217072077        0.25881610417612        2.56378419557142
C           41.44338365772395       -0.01683065144785       -0.01830716241773
C           42.66051227784687       -0.02191590886077       -0.02662923569899
C           52.27001934446282       -0.03868901533777        0.00006290334382
C           53.48446144173145       -0.03585782347942        0.00163970088249
Fe          47.46179577224500       -0.05389555536865        0.02226727591389
C           44.06659701797007       -0.02194372157303       -0.02988254176384
C           44.73794720386392        0.84147499020429        0.84324010420762
C           44.08305053840832        1.71721160316360        1.76379801131168
C           45.03437364709448        2.55071949786517        2.25240221875864
C           46.26765143217978        2.18368464751682        1.62283428163991
N           46.07713348495686        1.09965363886491        0.80332073356202
C           47.45875128255685        2.89007797079996        1.74336772063908
C           47.45164886347789        4.16435146510482        2.49629440019305
C           48.27636416322055        4.33500457070067        3.61107974240872
C           48.27172140273925        5.52963128031314        4.31236946790115
C           47.43756438086066        6.54927554665058        3.88405753512265
S           47.43942824650891        8.07151899804255        4.75520707787470
O           47.03459153667559        9.15075197479586        3.90290357450226
O           46.21594651476651        7.76152525561513        5.77625879644171
O           48.64543129731962        8.21333139955734        5.51466545248116
C           46.61148750699685        6.41142688449882        2.78033638249465
C           46.61961546495054        5.21109323432480        2.08972939260029
C           48.65419071331504        2.44908846093307        1.18536510213767
C           49.89416756529324        3.16483039521669        1.24966632045140
C           50.84947928042209        2.33584761857688        0.76319739330298
N           48.84153001898304        1.22710493532725        0.59072189304169
C           50.18941924868622        1.12368836281539        0.38934047690715
C           50.85560161243709       -0.03674354570085       -0.00550023617392
C           50.18655909448446       -1.19253979192647       -0.41078673093941
C           50.83987992711219       -2.41164487358775       -0.77258648182897
C           49.88452540238985       -3.22942109846591       -1.27879498642008
C           48.65167791591352       -2.50037138924374       -1.23648094710165
N           48.84453569019630       -1.27480334911615       -0.65258100182954
C           47.45821700667194       -2.92941611364439       -1.80852933369569
C           47.45153317465316       -4.20297585697165       -2.56287664223723
C           48.28476554239389       -4.37250838763670       -3.67153256807691
C           48.28537356292332       -5.56613838877213       -4.37438839493067
C           47.44811203590331       -6.58634416084247       -3.95340772766994
S           47.45932595798812       -8.10826923382678       -4.82487657171619
O           47.03673626212930       -9.18645037199740       -3.97980378001204
O           46.25488176757315       -7.79425797149203       -5.86735689672489
O           48.67756163743830       -8.25403251031747       -5.56397296541202
C           46.61407081154434       -6.44982450451878       -2.85552696247643
C           46.61685446685831       -5.25022770354399       -2.16344813475554
C           46.27035611561432       -2.21722211753199       -1.69286408453650
C           45.03587112755568       -2.58677572348671       -2.31896777828428
C           44.08338400054632       -1.75975708150201       -1.82220402423224
C           44.73933880689120       -0.88265082131816       -0.90370068812556
N           46.08229699281008       -1.12448657798787       -0.88289000146635
H           43.02938664369371        1.69420695620495        1.99077880203107
H           44.92098696685340        3.34063168031066        2.97692667582566
H           48.91284801448822        3.52058468070704        3.93676554703535
H           48.90743803843652        5.67337664146896        5.17698507742261
H           45.94656650224642        8.56934173802430        6.23030904452572
H           45.98057096996922        7.23346713325146        2.46630990259447
H           45.99108853795229        5.08669100399006        1.21566868163117
H           50.00969705300047        4.17016568919920        1.62044932227181
H           51.90842140061555        2.51245786928528        0.66507060799830
H           51.89410631360855       -2.60168583537196       -0.65103012619651
H           49.99536981815618       -4.23654389147582       -1.64630741715757
H           48.92444819288438       -3.55793378935737       -3.99044420804973
H           48.92783818223543       -5.70895056075070       -5.23414533053352
H           45.99737146650245       -8.59945730734187       -6.33278426720025
H           45.98153536023170       -7.27259751355346       -2.54670119402249
H           45.98243818476988       -5.12744734738029       -1.29342234703235
H           44.92173330300049       -3.37804085620285       -3.04186172878668
H           43.02788216580725       -1.74154229793664       -2.04122540606049
