308
 energy: -529.686290996061 gnorm: 0.000212441138 xtb: 6.5.1 (b24c23e)
C           39.26677216234312        0.12326583805998        0.03720731407246
C           39.89438208981369        0.12646943475446        1.27608560255922
C           39.27023096603033        0.11334135970892        2.55569033101932
C           40.25368609971430        0.12647238647104        3.50412213894240
C           41.51046720056728        0.14583744628758        2.83451538133146
N           41.24310328791811        0.14837418948782        1.49442963303583
C           42.78120987837512        0.15892481250336        3.41591786593060
C           43.99126922150798        0.14004459527921        2.72191332405837
C           45.28819067521752        0.11969180839709        3.37378738676461
C           46.21067809592940        0.12126642180642        2.38899344068286
N           44.14656209163927        0.16213456070293        1.36969975321041
C           45.47523093691417        0.14715393279546        1.13901409811132
C           46.10673415493783        0.15928785087325       -0.12105254298237
C           45.45346597887058        0.18509844908091       -1.36700765599444
C           46.07124820167198        0.21437977302206       -2.64611065575946
C           45.08341921487734        0.24462318389296       -3.59090317824793
C           43.83101105402081        0.23195593619818       -2.91635800230252
C           42.56137112036677        0.25366382969112       -3.49806029490852
C           42.51707818659420        0.24813432398980       -4.99256226846420
C           42.59541101751155        1.38597508603680       -5.79950469505021
O           42.70709112206381        2.66926174632382       -5.36648279892069
C           42.39072276653003        3.08325568945498       -4.05050452605857
C           42.58827298723723        1.25379507930944       -7.19451931022974
C           42.49432790752923        0.00825368085396       -7.78015469912028
C           42.40100778613760       -1.13671022596401       -6.99768117547707
C           42.41571065242452       -1.01271004135023       -5.61337196043371
O           42.34645711692721       -2.07159843954991       -4.76194148525703
C           42.21839994310039       -3.38605980252156       -5.26506024474877
C           41.35089652981441        0.20240934764915       -2.80294234523595
C           40.04815069141882        0.18163914180723       -3.44899798627231
C           39.13215795317370        0.14516952831873       -2.45990075576363
C           39.87513819011140        0.14861272546044       -1.21156071499538
N           41.20778493087068        0.18690719065378       -1.45633038654726
N           44.10645014200350        0.19826331397121       -1.57443486238965
C           42.82138896840963        0.11129065209966        4.90961566219482
C           42.66405935645035        1.22089871674089        5.74403062096090
O           42.48249864761873        2.50460649564466        5.33417954427265
C           42.88216197497380        2.97605113688712        4.06016594294409
C           42.65612092985542        1.05390201725272        7.13474855327502
C           42.81472854342555       -0.19939341029544        7.68989145675323
C           42.99078412257837       -1.31528088747499        6.88030738065627
C           42.98994502001710       -1.15697362650086        5.49915629753284
O           43.13222078481443       -2.18798443874727        4.62327775681574
C           43.34236971196935       -3.50344401523786        5.09521888521490
H           38.18200033978187        0.09990636708024        0.05599740848033
H           38.20376619964829        0.09629738981640        2.71495038701399
H           40.13131662308013        0.12044803290558        4.57522218198473
H           41.94916033218106        0.14193979497431        0.76622485450311
H           45.44252919932424        0.10076475917651        4.44077451544556
H           47.28571705496235        0.10629401218539        2.47231866822647
H           47.13683160201857        0.21294573330556       -2.81023139326605
H           45.20176789970900        0.27079934386465       -4.66203291559370
H           43.14792539445062        2.75620869844132       -3.32965661952691
H           42.37248986238989        4.17557263599154       -4.07541493242732
H           41.40770065537495        2.71411721933206       -3.73917465552793
H           42.65668912041339        2.15263968452857       -7.79410623696728
H           42.48834007128534       -0.08131273998290       -8.86056665733604
H           42.32421186732743       -2.10650425211551       -7.47039399739084
H           42.16837569679209       -4.04123442216661       -4.39337229105151
H           41.30173276650207       -3.50223952811867       -5.85585552203350
H           43.08304039754287       -3.66803173010844       -5.87809806557280
H           39.88892969254150        0.18804179961520       -4.51562095580306
H           38.05623055562506        0.11802829697326       -2.53524889876580
H           43.40343551338943        0.16549837249927       -0.84371151107311
H           43.89130864001915        2.63535545783624        3.80548134454426
H           42.87692263791399        4.06683965652540        4.12630102622273
H           42.18382210564859        2.66379235557422        3.27600927839975
H           42.52445085308268        1.93088481940483        7.75572999325972
H           42.80800424684944       -0.31739176904309        8.76757783192629
H           43.11808295115635       -2.29084443748437        7.32972946995326
H           42.49125604858185       -3.85855732306074        5.68893623615437
H           43.44702350078099       -4.13102350582209        4.20822505684422
H           44.25743165793186       -3.57301614212859        5.69564397335306
C           94.26507828811303        0.12671399561420       -0.14542671558468
C           93.65850492741676       -0.02428927025851       -1.38557763081193
C           94.30423987090818       -0.16778292561881       -2.64635480609599
C           93.33685238436200       -0.29037870059542       -3.60342681999936
C           92.06889178653370       -0.22748513390915       -2.95800663971522
N           92.31352030807065       -0.06267103658766       -1.62373430225235
C           90.80818113598467       -0.31831057695249       -3.55419756937008
C           89.58738629926945       -0.28628266680954       -2.87980644249919
C           88.30258203664265       -0.41759295828264       -3.54262826356270
C           87.36345879956637       -0.31409694683933       -2.57923421108092
N           89.40847185348187       -0.10147689121444       -1.54296866396866
C           88.07660524082671       -0.11596666671713       -1.33177999765890
C           87.42304969671585        0.04885635090694       -0.09372810591228
C           88.05455434707495        0.24021383060202        1.14912985128062
C           87.41479401953656        0.41205007931218        2.40593095232288
C           88.38612072844548        0.55954707873281        3.35688205225630
C           89.64990550642047        0.48151796598699        2.70851395277206
C           90.90929392374207        0.58009591917952        3.30453464469155
C           90.92839487564787        0.73079762386432        4.79197514498838
C           90.81702408642661        1.94372659703547        5.47626788106326
O           90.69245369564268        3.17346265753123        4.91157777356582
C           91.02579590201236        3.45472435071171        3.56500693138576
C           90.80182592209378        1.95546676036083        6.87745271464186
C           90.90637979654720        0.77851857594150        7.58952224526894
C           91.03292742051077       -0.43874424622717        6.93055208635571
C           91.04042191020483       -0.45760687031982        5.54078955738669
O           91.14238240264105       -1.59681871834525        4.80400903083555
C           91.28699963545250       -2.84993013221048        5.44117708939140
C           92.13192626366695        0.47163090184728        2.63792885515737
C           93.42367853030680        0.54458035865770        3.30204212369078
C           94.35686397425998        0.42102835717967        2.33632959232290
C           93.63524326894286        0.27539917331885        1.08396538727123
N           92.29817740869693        0.31373471240071        1.30318972116288
N           89.39766412792453        0.29215532999394        1.37499984440179
C           90.79485989834126       -0.54241300236273       -5.03214718020144
C           90.94463826455484        0.46540878131270       -5.98831240929114
O           91.09207174317896        1.79180506779144       -5.72751153919215
C           90.64333245165732        2.40003764907821       -4.52995101483678
C           90.98261231951676        0.13738191219747       -7.34944954924134
C           90.86062667821245       -1.17558840418875       -7.75620892209941
C           90.69198157871978       -2.19282084283632       -6.82433334990611
C           90.66340290901773       -1.87431011529030       -5.47139325094319
O           90.52600346922003       -2.79889479683885       -4.48308075072500
C           90.35145425814231       -4.16481120036962       -4.80109164743323
H           95.35026402365196        0.12669109435572       -0.14588082382299
H           95.37333065868157       -0.17478000237696       -2.78777551180064
H           93.47740067055197       -0.41668458832638       -4.66481409421822
H           91.59571775514181       -0.00365553401835       -0.90950816991701
H           88.16701738347784       -0.57262678562045       -4.60101820186535
H           86.29055315053378       -0.36337076383547       -2.67566093905369
H           86.34660535479850        0.41892722786602        2.55201466633044
H           88.24921269800082        0.70734186474879        4.41585811459917
H           90.28507464599646        3.04441198214899        2.87009685331972
H           91.02967557193219        4.54396031063509        3.47762438953991
H           92.01854295512965        3.06971951334561        3.30865506112351
H           90.70787238121956        2.90963395788788        7.38029926268525
H           90.89477916564168        0.80033637359336        8.67338627288027
H           91.11776286760075       -1.35339249430814        7.50160944121842
H           91.36485884917401       -3.58957652367601        4.64212087942835
H           92.19530708608069       -2.88589293098742        6.05478561119878
H           90.41741286941493       -3.08594446791969        6.06654317796466
H           93.56466370526469        0.66840181669058        4.36406091355046
H           95.43167396784038        0.42328741578850        2.43025668281870
H           90.11327863994806        0.18127539502370        0.66445085144299
H           89.63589428044696        2.06359079751785       -4.26316157114433
H           90.62342756021002        3.47498325665363       -4.72571308706264
H           91.32567909205987        2.20283072434085       -3.69592067443116
H           91.10786947319879        0.93850551890959       -8.06677731749774
H           90.89039365697310       -1.41865819852039       -8.81233032079575
H           90.59328913531552       -3.21684131437032       -7.15831111304931
H           91.22068390447329       -4.56773768310981       -5.33503282200979
H           90.24270173529172       -4.68673394673643       -3.84854490890100
H           89.44954393052764       -4.32435883412113       -5.40421162331367
C           51.31007685917652        0.12800159032786       -0.21609999693324
C           50.08218967854206        0.13480412480640       -0.19719602171985
C           48.73671862674343        0.14239824776931       -0.17427983509190
C           47.51340670959475        0.14932582823281       -0.14972399000111
C           52.65538520375937        0.11927668228053       -0.23568554980349
C           53.87902921597254        0.10850392723154       -0.25285012066915
C           67.37936247925975       -0.07342302000292       -0.25764717119770
C           66.15035277357367       -0.06192873108258       -0.26630903885198
C           64.80691371904038       -0.04717863374414       -0.27458467585928
C           63.58238540717602       -0.02722199152636       -0.28106063441532
C           68.72283465761386       -0.07881954784137       -0.24670922729765
C           69.94752295148083       -0.08214573741620       -0.23673156687923
C           83.44741594157824       -0.00365843373741       -0.08547652367310
C           82.21932245585782       -0.01358197151679       -0.09041280701421
C           80.87404476872331       -0.02464625611269       -0.10052396095872
C           79.65022877869919       -0.02998005311925       -0.11211017585225
C           84.79287212213328        0.01146201711007       -0.08304330736657
C           86.01645478640928        0.02593075134738       -0.08673945329974
C           55.28479119927785        0.09560014004355       -0.27420230890868
C           55.93229452856345        1.29057510121773        0.09141284204320
C           55.30784350425255        2.50297886404198        0.48600182578727
C           56.29196272521568        3.41406317214119        0.75366563435885
C           57.54670944750654        2.78543645958914        0.52615420515365
N           57.27800716109439        1.50238288380998        0.13143479473979
C           58.81453063087325        3.35322446220489        0.68842566084148
C           60.03233110005701        2.70335104026498        0.49259974697145
C           61.32331219913905        3.35006538450022        0.64571742163160
C           62.25581525188484        2.41333836397660        0.37757451807180
N           60.20233764085177        1.40281588909245        0.12491417195039
C           61.53271853465522        1.19863427035158        0.05392013831312
C           62.17871291767113       -0.00773975404310       -0.28630471909900
C           61.53236626564738       -1.20774230233728       -0.64203910793178
C           62.15453682957621       -2.43142920300805       -1.00200297165400
C           61.16855098238340       -3.33479177896562       -1.29219445339187
C           59.91585678202246       -2.68728532582959       -1.11528651088803
C           58.64799763059495       -3.24156300065736       -1.31591937241126
C           58.61718542372793       -4.68622711899549       -1.70330419819002
C           58.56055790822226       -5.61294626502002       -0.64312064064140
O           58.52693687893918       -5.06374975870045        0.60129708962756
C           58.43389723379743       -5.88913689212253        1.74457711210609
C           58.54907193631472       -6.98229469189900       -0.87986802201645
C           58.60058225531507       -7.44139576940296       -2.19087073991275
C           58.65427854147697       -6.55309872934875       -3.24464518370300
C           58.65942972399099       -5.17059131100085       -3.01296308691358
O           58.73062194340186       -4.42490179703552       -4.14575045720685
C           58.48730905243804       -3.03157848057549       -4.19144658410827
C           57.43032376054244       -2.59572873771639       -1.10854032787797
C           56.14153395519580       -3.23741694044028       -1.29500365789579
C           55.20688214706276       -2.30702899622659       -1.00844321237987
C           55.92741918639447       -1.10072872170928       -0.65089511978127
N           57.25862460201733       -1.30090780954093       -0.72487396618298
N           60.18655481555523       -1.40330553622848       -0.72246850265887
C           58.84633873976706        4.78365920785814        1.10807631893971
C           58.42524041120255        5.78900792122085        0.22748846807112
O           58.00217487505058        5.36908506042139       -0.99459944313220
C           57.57842512091739        6.30526684727743       -1.96546572604463
C           58.46343994236391        7.12764674222265        0.61587295697344
C           58.91577875394131        7.45467884037251        1.88522967099556
C           59.33090506488416        6.47658796612220        2.77606231571165
C           59.29777838220527        5.13796283381425        2.38670455040274
O           59.67152073355240        4.10851143379363        3.19034886149048
C           60.17818809224012        4.35810219325567        4.48618441374885
H           54.24171189033302        2.64784953921952        0.55527747391621
H           56.16503785343660        4.43297455022790        1.08108530379833
H           57.98277485289195        0.80761891852856       -0.09137255221959
H           61.47109716310004        4.38222986842213        0.91921851155291
H           63.32995604066811        2.50879791389919        0.38530290823381
H           63.22045120997436       -2.59006012217483       -1.03336980111254
H           61.29022639533083       -4.36030126832578       -1.60122420653662
H           58.40354948856705       -5.21592301976943        2.60333836020154
H           59.30466833016104       -6.54974358856124        1.83588455491755
H           57.51958711415455       -6.49458562640113        1.72918054514581
H           58.50530361371268       -7.68989204256358       -0.06304837309526
H           58.59549502022114       -8.50823487985615       -2.38375259764889
H           58.69241761856103       -6.89959669667933       -4.26962352268203
H           58.48322401837353       -2.76333248352392       -5.25064676251635
H           57.51597951426959       -2.77917511661068       -3.75291210905869
H           59.27531324592913       -2.46528246229552       -3.68345149223167
H           56.00030458843211       -4.26274849229381       -1.59734854109786
H           54.13285624993560       -2.40196035425761       -1.02728430488703
H           59.48394517163123       -0.70401561516326       -0.50675920727505
H           58.38395406682569        7.00032674000745       -2.23110980258276
H           56.70673066309670        6.87465990595750       -1.62086570657685
H           57.30099582866432        5.72403909796391       -2.84679033713876
H           58.14529821970375        7.91162599961234       -0.05811767650348
H           58.94386532675895        8.49571663869264        2.18762096218389
H           59.67447674374083        6.76035634999114        3.76174114321563
H           61.08391098139284        4.97538688217888        4.45053899623417
H           60.42550190472803        3.38233130775594        4.90825397792835
H           59.43077425353186        4.84691934849627        5.12278243560861
C           71.35120340494156       -0.07341628902820       -0.22696354351904
C           71.97054006356993        1.13626637031365        0.14312291812827
C           71.31576396771635        2.33753443127681        0.52099677788997
C           72.27710189027830        3.26644929893592        0.80994432184234
C           73.54762575939803        2.66052347436591        0.61122858756305
N           73.31076146976928        1.37239456928670        0.21201280998128
C           74.80116092707260        3.25098835232629        0.80229976388915
C           76.03452378372161        2.62356471833391        0.63031049720684
C           77.31040419948287        3.29372705793214        0.80950261366814
C           78.26496999917988        2.37621036760202        0.55372367395339
N           76.23518944032766        1.32841183054035        0.26109009547098
C           77.57086086158220        1.14950007080934        0.21175983773945
C           78.24445461164402       -0.04013276095069       -0.12932010338624
C           77.62870110464367       -1.25074000556149       -0.50005519765774
C           78.28109244132304       -2.45921606239727       -0.85894595225257
C           77.31808505723765       -3.38303653345278       -1.16092951161916
C           76.04968302925748       -2.76419857634923       -0.99292104056520
C           74.79628891333135       -3.34639027941874       -1.20545885433461
C           74.80309159360984       -4.78883371500696       -1.60193817945894
C           74.75302852662904       -5.72576696551552       -0.55067933404522
O           74.68547851863565       -5.18890746411500        0.69777031268260
C           74.59495576257132       -6.02707883069336        1.83195659927364
C           74.78146124486598       -7.09286455774664       -0.79931776457814
C           74.86725269218789       -7.53894517422595       -2.11299739465399
C           74.91451610687443       -6.64032167778089       -3.15839048823281
C           74.87917110641678       -5.26043315925324       -2.91486216542900
O           74.95154304490346       -4.50188828175584       -4.03918289932093
C           74.64201185652826       -3.12144278466374       -4.08115858523115
C           73.56283512654166       -2.72808384352442       -1.00908299310149
C           72.29018311399220       -3.39696088167706       -1.20841527239730
C           71.33295653058821       -2.48406816210417       -0.93966059150470
C           72.02402450721101       -1.26153069062883       -0.57992019043365
N           73.35928320359604       -1.43501528972081       -0.63303315413821
N           76.28812790617941       -1.47603991385489       -0.59327170974934
C           74.79712118113646        4.67977345013443        1.22804783526428
C           74.36330489501758        5.68058397093866        0.34827603025965
O           73.96577381499915        5.25899713190984       -0.88179763987198
C           73.51724636066969        6.18973837611547       -1.84673164325216
C           74.36470637774939        7.01725265286893        0.74519969106950
C           74.79276269699146        7.34704600743726        2.02222251763749
C           75.22021233411432        6.37353122713999        2.91220793285920
C           75.22432846730919        5.03707167213742        2.51427929863426
O           75.61216698870939        4.01194642741795        3.31683167539262
C           76.10212891336090        4.26598515091219        4.61821476419076
H           70.24597094534410        2.46348473515891        0.56632859725987
H           72.12404772312246        4.28299419497545        1.13337195990853
H           74.03269933458260        0.69016978830557        0.00603644514875
H           77.43380574973756        4.32725815637132        1.08973693796667
H           79.33682314267020        2.49174102500387        0.58070925574481
H           79.35048763509219       -2.59426778907041       -0.88100813474240
H           77.46537976754267       -4.40454176666353       -1.47207610597243
H           74.53165579387522       -5.36301012803732        2.69603278354275
H           75.48153645750136       -6.66495552014358        1.93264035524062
H           73.69772435668689       -6.65669021896443        1.79521209448282
H           74.74317709113801       -7.80864647289500        0.01063416870396
H           74.89402047118406       -8.60381595094685       -2.31478014864553
H           74.97891068307597       -6.97662226843540       -4.18546102556366
H           74.64159413164472       -2.84687451801910       -5.13874673477885
H           73.65289059093415       -2.91915241821983       -3.65664005624544
H           75.39359988944538       -2.52096229015562       -3.55746098276599
H           72.17394084193165       -4.42669286499400       -1.50642275063627
H           70.26139096150099       -2.60074164247159       -0.97218243647157
H           75.56821656365156       -0.79304688441179       -0.38251917141654
H           74.30239722438407        6.91046541837490       -2.10483056910323
H           72.62812777555341        6.73029853395998       -1.50018582691088
H           73.25945671520762        5.60738959368636       -2.73326451680681
H           74.03662846769569        7.79765182192486        0.07182285592140
H           74.79156207250691        8.38646941484461        2.33137086570493
H           75.54387531697725        6.65904191748591        3.90409635675584
H           76.99121603382069        4.90746944836500        4.59378959116560
H           76.37228468503028        3.29424651868685        5.03557486013062
H           75.33703045323176        4.73015973262975        5.25225441041069
