266
 energy: -470.164350957917 gnorm: 0.000876499271 xtb: 6.5.1 (b24c23e)
C           37.65010720522207       -0.08803611810897       -0.09387447589990
C           38.27035092267817       -1.29590088257017       -0.38566037334276
C           37.63019684901479       -2.52287992315290       -0.71774574105248
C           38.60032104780548       -3.46592830523901       -0.90822715903832
C           39.86450820751102       -2.84702382612231       -0.68971637942778
N           39.61510575616077       -1.53847482320977       -0.38954494666222
C           41.13301146333289       -3.43182093199995       -0.78225998199998
C           41.17637146771402       -4.88095369618293       -1.08725529111760
C           41.82070263779157       -5.34438884197798       -2.23861982396985
C           41.85841579026748       -6.69607256041033       -2.52116582318083
C           41.25725151415275       -7.61718178505646       -1.65681627766383
C           41.31439422013066       -9.05481467137131       -1.97816020612648
O           41.85204105979778       -9.50051837263260       -2.95940415687513
C           40.61442515192247       -7.15591641311977       -0.50552687339163
C           40.57197741451470       -5.80160512268314       -0.22627391850887
C           42.34331905924083       -2.75527587664361       -0.60825544823062
C           43.64539981177190       -3.39677750847375       -0.65224661194193
C           44.55739677070581       -2.42396210950882       -0.44908837820537
N           42.48570815233241       -1.42505696861176       -0.35766140848214
C           43.81117788849300       -1.19357902443839       -0.26861392679666
C           44.43749224487141        0.04896828951387       -0.04300322470751
C           43.79091759512437        1.27564208153674        0.19954640477890
C           44.42410434635024        2.52809333870218        0.41653391212802
C           43.44950960409497        3.46005281617441        0.64227785940060
C           42.18987149654338        2.80195382090814        0.57687081775765
N           42.44779510685772        1.48654820522552        0.29643790864854
C           40.92226462628831        3.37420728054089        0.73261363298800
C           40.87863015737965        4.81400217229497        1.07566315277001
C           41.48119900009591        5.28004924304213        2.24873573153983
C           41.43527906109644        6.62223474293808        2.57196838110529
C           40.79091428591713        7.53213242852386        1.72710490026333
C           40.75772603520151        8.95965212269169        2.09327114536163
O           41.26242834639141        9.40627284727783        3.09157263591181
C           40.19175785592700        7.06893027172666        0.55313159187128
C           40.23355663458343        5.72383435761587        0.23269123702429
C           39.71059970037027        2.68840905284609        0.59017265054695
C           38.40058389690497        3.28487082205880        0.80319480572499
C           37.49584449328952        2.31472709099868        0.56381408440975
C           38.25185341198627        1.12303149950395        0.22051417545723
N           39.58212862917303        1.38306661846082        0.25613776696491
H           36.56500127263180       -0.10359573269871       -0.10915903520679
H           36.56307067812850       -2.65247264947014       -0.80203211945945
H           38.45893007686041       -4.49786760804649       -1.18570549397169
H           40.33381399211593       -0.84820194083021       -0.19924206510664
H           42.27632284231662       -4.63221864552690       -2.91719883974050
H           42.35165880504844       -7.06287908516177       -3.41490806599129
H           40.81513844725879       -9.70880471779924       -1.23163369349411
H           40.14894219515411       -7.86370661725741        0.17271233298148
H           40.08505632993895       -5.44858138993013        0.67592499681135
H           43.81666668122764       -4.45009230781105       -0.80368768846543
H           45.63167954587235       -2.50643838346169       -0.41029865884137
H           45.49020998347083        2.68655878283480        0.39625749070817
H           43.58756754106663        4.51288671334893        0.82654497051250
H           41.73199327178276        0.77769898957339        0.17477498340356
H           41.96806698517132        4.57579268015144        2.91395638602954
H           41.89404938573055        6.98972956500856        3.48363154346262
H           40.22249883807483        9.60504202177180        1.36448346335451
H           39.69378624368363        7.76854061150577       -0.11033067248101
H           39.78025522836095        5.37016161340424       -0.68644562139992
H           38.22221589578188        4.30348317739843        1.10789035205004
H           36.41973988236420        2.36651244266749        0.61713464973649
C          100.17682731632888        0.11355477911855       -0.06947952181329
C           99.55303345225741        1.27620768079594        0.36397738603229
C          100.18876145225934        2.48836659915280        0.75394684591736
C           99.21642974563837        3.37259957332278        1.12738487592066
C           97.95539667171012        2.72548839261310        0.98594022512611
N           98.20861406300186        1.46965200016394        0.51330064455637
C           96.68593593126434        3.25533768606983        1.24522511749385
C           96.63889776637652        4.63425362049144        1.78515465839293
C           95.98104009721290        5.64897161540053        1.08297626679818
C           95.94021944459514        6.93400448011384        1.58832426981277
C           96.55161134644523        7.23408690438592        2.81024620414804
C           96.49111722962728        8.61209390946981        3.33052807595518
O           95.94315393692740        9.51989157540929        2.75939372234712
C           97.20784365210019        6.22112799692051        3.51362312722690
C           97.25351239627096        4.93579375884908        3.00394675647816
C           95.47800612992722        2.58464825514190        1.03575992688011
C           94.17573021023270        3.13647804788241        1.36507867435010
C           93.26649018647508        2.20253914371519        1.01819142230392
N           95.33879751397103        1.33152127868355        0.52313275746495
C           94.01475245576862        1.07783789435268        0.49042784961693
C           93.39142567417557       -0.09519402816203        0.01879594257509
C           94.04053771192686       -1.25059390010221       -0.45551938583113
C           93.40943228221902       -2.42475344386451       -0.94523716709079
C           94.38673347520444       -3.31601769626274       -1.29127367694282
C           95.64629476660039       -2.71474326205476       -1.01530901552790
N           95.38509370859514       -1.46461996330671       -0.52083464030750
C           96.91591314727869       -3.26203068214040       -1.23189673197470
C           96.96524327895729       -4.64940111003465       -1.74718665383041
C           96.39448716417860       -5.69717730760945       -1.01739149788938
C           96.44591095688790       -6.99157273740648       -1.49706358674481
C           97.06397908865078       -7.26897214395191       -2.72097211358419
C           97.10358892516743       -8.65818031050818       -3.21234776774120
O           96.62648489921058       -9.59169916599291       -2.61928337172893
C           97.63157236090306       -6.22306263719502       -3.45288180814791
C           97.58442125285080       -4.92784978232533       -2.96936260531673
C           98.12546769800799       -2.59782880962443       -0.99813019565652
C           99.43852335898245       -3.19855472433318       -1.17796183100370
C          100.33996509486165       -2.24925361905190       -0.85663874440158
C           99.57927424861722       -1.07482118200758       -0.46728941937426
N           98.24949362281625       -1.32469128957764       -0.55583497060005
H          101.26147959787062        0.14485346193512       -0.09150406965665
H          101.25451522667967        2.65161175084896        0.74038354935515
H           99.35413289570795        4.38790886950205        1.46216221156724
H           97.49247910178165        0.78287560337571        0.30178297243380
H           95.51726651245330        5.42259109455050        0.12961254785779
H           95.43655298264333        7.72769547562544        1.04704692757789
H           96.99861011924747        8.75243620717320        4.30881853312194
H           97.68133076897757        6.44404574944590        4.46429474927221
H           97.75113584737916        4.14896797406858        3.55978839201791
H           94.00269711748248        4.10128752309115        1.81333403120918
H           92.19299474967697        2.24212226614227        1.10990703582379
H           92.34267813021269       -2.55874700194097       -1.02389469845541
H           94.25023179806209       -4.29897604596093       -1.71153712078221
H           96.09967182859815       -0.79633785300311       -0.25170103218217
H           95.92827355422422       -5.48870034215656       -0.06098909324327
H           96.01176639125858       -7.81022921092461       -0.93317307282363
H           97.61605639197526       -8.78143252015588       -4.19028325550428
H           98.10911249854688       -6.42858905632474       -4.40542231278014
H           98.01314230382636       -4.11658718061177       -3.54680796338103
H           99.62118378334134       -4.21330326831426       -1.49285502884524
H          101.41686754948745       -2.31076958197996       -0.86210762174582
C           45.84310660664190        0.07722910877676       -0.05236073186967
C           47.06744915576132        0.09840322678570       -0.06687518168604
C           48.41004386302699        0.11279850588262       -0.07888755854932
C           49.64071161993854        0.12002585837220       -0.08930753903895
C           50.97857691602498        0.11978234019335       -0.09786626675993
C           52.20936028753652        0.11375894187558       -0.10175353677587
C           53.55178628863918        0.10306537612175       -0.10124578439717
C           54.77653827366014        0.09021474260772       -0.09419236799409
C           64.44718844913612       -0.04615175049226       -0.00940513650682
C           65.67247786487970       -0.05532722856677       -0.01389931903837
C           67.01417450213468       -0.05874793785717       -0.02314081804909
C           68.24535076388341       -0.05387612341547       -0.03668129401663
C           69.58230204068005       -0.04716028638630       -0.04763060016335
C           70.81344757459269       -0.03988786412042       -0.05914734249039
C           72.15516739582446       -0.03479101409370       -0.06329932443081
C           73.38048612860162       -0.03119063119614       -0.06040155113139
C           83.05193447828425       -0.11396290552523        0.01414554592306
C           84.27656030656613       -0.13216518078678        0.01813077697244
C           85.61907887371673       -0.14684077292862        0.01777349382505
C           86.84978143243185       -0.15765012857696        0.01479995114279
C           88.18779967003449       -0.16089782945833        0.01874328388413
C           89.41845113677094       -0.15735229045172        0.02124858666623
C           90.76125188702670       -0.14501819656136        0.01664220557021
C           91.98564775609366       -0.12660674763517        0.01935941285739
C           56.18119633977695        0.07218412468047       -0.08246144474919
C           56.82765732443332        0.99856818657070       -0.92325302654995
C           56.19875857156806        1.92035620788813       -1.79941286715735
C           57.17863863799730        2.64312453979810       -2.42325751057305
C           58.43491263192445        2.18863742639047       -1.93737481177588
N           58.17226038781058        1.18782682122268       -1.04119482466272
C           59.70486397409470        2.64703375422321       -2.30975725962544
C           59.74315192986221        3.76672336172825       -3.28064727911353
C           60.35658569095937        3.60135454731763       -4.52625047806370
C           60.39102425517127        4.64476287348583       -5.43096056391567
C           59.81827222693158        5.87975083074887       -5.10922838691133
C           59.87185290781042        6.97918298127826       -6.09026160730312
O           60.38255534440383        6.88211904037249       -7.17656857318039
C           59.20714205192161        6.04693291976446       -3.86430337704063
C           59.16719048584390        4.99948331237036       -2.96123314981550
C           60.92029581981672        2.14121852824207       -1.84532655226502
C           62.21576883830035        2.68664272044289       -2.21041304516148
C           63.13871439516166        1.93995178259954       -1.57019637747677
N           61.07732859223277        1.09898467468889       -0.98352572175050
C           62.40560289757060        0.94787626455800       -0.80859978770483
C           63.04334468959171       -0.02693217064428       -0.01436961571191
C           62.39681272572390       -0.99107441313262        0.78321210400017
C           63.02542665729177       -1.99101818534767        1.56928955319860
C           62.04556071052728       -2.70910687300582        2.19845928967004
C           60.78941099794380       -2.16099720036530        1.82049335682296
N           61.05242878292953       -1.13161356608762        0.95710836229667
C           59.51955050040914       -2.59371118225504        2.22218815025006
C           59.48103209069239       -3.71403147193833        3.19239459336032
C           58.86552703027665       -4.92160794018619        2.85100292658593
C           58.82753984307579       -5.96896938846618        3.75407498220458
C           59.40023042163945       -5.82745814148571        5.02034456474094
C           59.36914373696787       -6.92639911688862        6.00291828918978
O           59.84941137493220       -6.85205500368879        7.10482812953981
C           60.01458756097485       -4.61847755553927        5.36312379113698
C           60.05761459126687       -3.57506442513979        4.45860357411618
C           58.30379739900055       -2.05985469905031        1.78995874559117
C           57.00845623375361       -2.49781174890148        2.27938792380679
C           56.08536334122385       -1.75458882648739        1.63523230362824
C           56.81813935252365       -0.85860257827831        0.76252081068936
N           58.14668968636874       -1.05685898628669        0.88343565665258
H           55.13281943851817        2.00826302775206       -1.93388407676524
H           57.04471922254633        3.41589262495834       -3.16240872658013
H           58.88194752833074        0.66074847846640       -0.54336197484743
H           60.79123826045520        2.64187421841085       -4.78259106565197
H           60.86003774179232        4.52289412523811       -6.40140780613001
H           59.39631297428384        7.92187262779981       -5.74481932733855
H           58.76407634557147        7.00294671528825       -3.60482469146971
H           58.70413672880460        5.13685006779569       -1.99049718990331
H           62.37541130781870        3.53424339735281       -2.85676049933619
H           64.21242297846027        2.03569859932737       -1.58814802106820
H           64.09125478481259       -2.13838102498323        1.63509279833816
H           62.17921641244195       -3.55033763426674        2.85867363354924
H           60.34301659944006       -0.56170540155101        0.50854314327988
H           58.43041915614654       -5.03795335619413        1.86484879743899
H           58.35241827437041       -6.90484534200267        3.47849012788260
H           58.86064968483829       -7.84597304984621        5.64256023079258
H           60.45270866925004       -4.51594713779035        6.35012572606703
H           60.52216686478760       -2.63459793947066        4.73282853235512
H           56.84891636028971       -3.25939425681398        3.02524073032280
H           55.01175798820015       -1.78411508026911        1.72955527597700
C           74.78438507896796       -0.03626361492339       -0.04829581723929
C           75.42502788416947        0.89196377974085       -0.89196038106291
C           74.79046315974063        1.80820842106885       -1.76985352444182
C           75.76566043019388        2.53968903933843       -2.39091095405333
C           77.02471277828319        2.09592475525323       -1.90206918850203
N           76.76814809341845        1.09242261439141       -1.00679966565106
C           78.29137318955397        2.56561184997049       -2.27097904997887
C           78.32261237031231        3.68852241422995       -3.23845030707079
C           78.94008019147908        3.53213085347547       -4.48323568804294
C           78.96927392704488        4.57912574824104       -5.38398985817355
C           78.38716010037750        5.80887052870630       -5.05904899276496
C           78.43619407450829        6.91252829634833       -6.03569029108255
O           78.95064799663963        6.82295820607330       -7.12084635658928
C           77.77149838146541        5.96693848727203       -3.81518508231996
C           77.73668679792569        4.91582277828761       -2.91613179846667
C           79.51050054451893        2.06769018166993       -1.80651451319262
C           80.80247645490010        2.62318937232217       -2.16938334427082
C           81.73045869432414        1.87921787911794       -1.53329086803793
N           79.67420253119033        1.02334482564276       -0.94927578472525
C           81.00401494760629        0.87925205745853       -0.77580188017858
C           81.64703851818906       -0.09680545217248        0.01119633163277
C           81.00660288302461       -1.06592365170574        0.80720937013222
C           81.64139988896471       -2.06432919405278        1.59039788977202
C           80.66641613054465       -2.78332652390144        2.22592365307046
C           79.40728008633613       -2.23785055317585        1.85429910552666
N           79.66327690023456       -1.20952330542938        0.98795811350779
C           78.14060628391610       -2.67198686271940        2.26497854659729
C           78.11174426432969       -3.78647214012786        3.24217267405854
C           77.49998561256957       -4.99908645108710        2.91239515509996
C           77.47376583784458       -6.04109773928553        3.82210732719122
C           78.05450480166381       -5.88891704825777        5.08345594971613
C           78.03725716070426       -6.98234792722609        6.07251672541664
O           78.52442202306329       -6.89837315076904        7.17069625234632
C           78.66446638823631       -4.67455399927486        5.41486430884019
C           78.69589804267891       -3.63659649306134        4.50368447996406
C           76.92158924770716       -2.14464757765133        1.83527395238583
C           75.62957504290478       -2.58551442505365        2.33052614978632
C           74.70151608518043       -1.85125686361789        1.68319706725866
C           75.42818702324870       -0.95717030184716        0.80332673229864
N           76.75747373001454       -1.14752532701225        0.92292280990442
H           73.72411228381773        1.88712393558676       -1.90670808359282
H           75.62701646866824        3.31164602702329       -3.13005407682428
H           77.48099421726761        0.57156399786184       -0.50696746287675
H           79.38223728430307        2.57676575723108       -4.74209536487762
H           79.44158704762143        4.46423127739523       -6.35369110652779
H           77.95393418938050        7.85086658110205       -5.68779208654795
H           77.32100468682954        6.91879869627311       -3.55324336210406
H           77.27012961503070        5.04626198055133       -1.94611541403196
H           80.95647251149472        3.47476656655285       -2.81186024343573
H           82.80359872787332        1.98135438347785       -1.55114872129837
H           82.70780496717533       -2.20967929494943        1.65069539495503
H           80.80520256117826       -3.62350449142323        2.88640129506742
H           78.95038022645056       -0.64104050028093        0.54313686257397
H           77.05898422946130       -5.12379332657626        1.92988772300372
H           77.00190194287865       -6.98119025979904        3.55543602780273
H           77.53257101331090       -7.90736551187109        5.72089326165052
H           79.10884833413567       -4.56372054343749        6.39815926717290
H           79.15765940067800       -2.69212725103945        4.76872020959891
H           75.47543879832968       -3.34310841225122        3.08156125961418
H           73.62828438734995       -1.88565856630043        1.78000669686712
