252
 energy: -503.611881065170 gnorm: 0.000489711343 xtb: 6.5.1 (b24c23e)
Ni          53.82185437631661        0.00033479387143       -0.07700543786404
C           50.42684857287239        0.01490005279473       -0.13031937489699
C           51.07724089900574        1.22527201903839       -0.01402899951369
C           50.39538091679734        2.47608480419401        0.12091373702017
C           51.34894107301784        3.43553680563809        0.15688463153671
C           52.61276837686390        2.77037655004676        0.02943113171649
N           52.43670585556364        1.41075969905241       -0.04459011537018
C           53.83170939473612        3.43183267256078       -0.03710825139959
C           53.84046848872555        4.91544865063231       -0.00426883321850
C           53.21556438363486        5.64536211273606       -1.01522647424979
C           53.22460367247723        7.03499193085621       -0.97830075958343
O           52.62662199326844        7.75487045209415       -1.95863623902553
C           53.85319711289635        7.69863547081107        0.07659086041609
O           53.84121016626681        9.06861776788496        0.08892418307880
C           54.47475553317027        6.96908457805885        1.08688959369696
O           55.06729922333258        7.69002161792579        2.08988488896751
C           54.47501494538460        5.58029424305944        1.04839280941231
C           55.04447158965730        2.76166670429480       -0.12923814920251
C           56.30618462873576        3.42317365410750       -0.26649687267662
C           57.25611550986817        2.45738875052708       -0.26685428194519
N           55.21942154953091        1.39687706321574       -0.08196910251738
C           56.57399254748126        1.20998544496888       -0.13452154461956
C           57.23685430456185       -0.01558977558956       -0.03580115602738
C           56.56170152585147       -1.23481630045325        0.05334250448878
C           57.23304162925277       -2.49056823226636        0.16421541391089
C           56.27555812989094       -3.44776828528863        0.14445351961465
C           55.01810560883320       -2.77259862395298        0.03332218341386
N           55.20581408179346       -1.40890890462785       -0.00852200640703
C           53.80292885320348       -3.43022977397341       -0.09750727651978
C           53.79520097297957       -4.91565036278634       -0.11066477400511
C           54.16265742234922       -5.62897756017341        1.02954395112080
C           54.15095779763195       -7.01915773775634        1.01440898839384
O           54.49907667849010       -7.72397766006848        2.11828854387845
C           53.77796427200013       -7.69860344357159       -0.14639177263339
O           53.77942613013406       -9.06923556263508       -0.13293954220965
C           53.41465124266487       -6.98487841473503       -1.28534665596402
O           53.06447049738343       -7.72100441247377       -2.38688589533119
C           53.41781385198822       -5.59535534445428       -1.27122118424030
C           52.59360573805017       -2.75905081206776       -0.21914872199079
C           51.32452069913900       -3.41797611387700       -0.32435129559229
C           50.37900550108879       -2.44979865212979       -0.33349318454630
C           51.06982737425197       -1.20130323622828       -0.22665367435984
N           52.42707524401086       -1.39725650678486       -0.17091712272824
H           49.34309737063540        0.01899505768905       -0.13932861275902
H           49.32420289229082        2.58447983334388        0.18213489307126
H           51.22143406178974        4.50053964144123        0.26224408339366
H           52.73598506444956        5.14089457848047       -1.84405265481984
H           52.73780737261717        8.69834256261342       -1.75534469743116
H           54.31502933319628        9.36484597061224        0.88241696231216
H           55.46576085368336        7.10392353129786        2.74658869851412
H           54.95002325281520        5.01802026692270        1.84373943423097
H           56.43790492833647        4.48870800447079       -0.36085082993799
H           58.32484665576235        2.56611588465917       -0.35488933663000
H           58.30138664084480       -2.61028914039438        0.24087347693930
H           56.40023471164328       -4.51713313198748        0.19069727336058
H           54.44243718534011       -5.11121989892120        1.93785161862373
H           54.42566335383177       -8.67037259090766        1.91178648197554
H           53.49262601267945       -9.37637977128747       -1.00767105859497
H           52.82915936424164       -7.14400300722313       -3.12525506513397
H           53.14445307561552       -5.04518341502332       -2.16393013809522
H           51.18738868129383       -4.48621572742371       -0.36882103069294
H           49.30711028534274       -2.55172252294834       -0.39390054698551
Ni          86.36616481419253       -0.07216666374257       -0.03218114258754
C           89.75990580494437       -0.09977970010588       -0.07632466899239
C           89.10264726567642       -1.31207179238648       -0.08717606061426
C           89.77580717913918       -2.57478397667072       -0.08046305603973
C           88.81679007958863       -3.52594459230686       -0.16480248215083
C           87.55854584812187       -2.84224830176554       -0.23577349676511
N           87.74259941874359       -1.48436589444671       -0.15333182455608
C           86.33758351446872       -3.48278074363576       -0.40151670566987
C           86.32080310432933       -4.95880866633158       -0.55257457343319
C           86.96148327189128       -5.56194513960151       -1.63473737497870
C           86.94166540654152       -6.94499105167003       -1.77327500577719
O           87.55413669725409       -7.54166376339892       -2.82482386472754
C           86.28708037540780       -7.72986136474605       -0.82257693128319
O           86.28865750952943       -9.09075644069917       -0.98236330818529
C           85.65078222762406       -7.12713837974901        0.25953046717965
O           85.03364313598505       -7.96260596646162        1.15317723513620
C           85.66091482627256       -5.74461878742445        0.39601441234351
C           85.12992628545506       -2.79800343098776       -0.42775981290802
C           83.86558276802073       -3.42792128788390       -0.65903143057087
C           82.92081989048143       -2.46477774835374       -0.53817428412809
N           84.96205829446652       -1.44934924407589       -0.20707149001371
C           83.60888275991987       -1.24939955624453       -0.24045881587365
C           82.95306350893360       -0.04391269530433        0.01964920410594
C           83.63524461068806        1.15068246311483        0.26062283026433
C           82.97183160512527        2.38621301838997        0.53107761256693
C           83.93396879156279        3.33539278353988        0.61444357112264
C           85.18658959866235        2.67390455043497        0.40750586586442
N           84.99120709336979        1.32549978770948        0.20665692188367
C           86.40319234810967        3.33787650482058        0.33361249986974
C           86.41770326484750        4.81513660773349        0.48804940739199
C           86.06573599977919        5.39560886882516        1.70595059050704
C           86.08067785386304        6.77855670091967        1.84777392400856
O           85.74585841247911        7.35439605062093        3.02788948758521
C           86.44253928385722        7.58437301342948        0.76699864878932
O           86.44493432750129        8.94415951969582        0.93579208604438
C           86.79083249583857        7.00330884363700       -0.44950822239895
O           87.13062042618959        7.85852173284525       -1.46459730736891
C           86.78365694263981        5.62103691682878       -0.59257073228617
C           87.60729683905791        2.67940574479439        0.12214482907050
C           88.87902734781886        3.33987386699010        0.07556313611172
C           89.81962818619637        2.37335659632719       -0.03750847537072
C           89.12323592170591        1.12350869033529       -0.05378655380651
N           87.76719449908938        1.31926113945909        0.02680286336059
H           90.84365402056751       -0.10883106530589       -0.08139652640600
H           90.84541418585952       -2.69662406519625       -0.01691236501293
H           88.93695582145673       -4.59696518171501       -0.17656814990111
H           87.46100597674847       -4.96184545078071       -2.38425313206985
H           87.42792120457035       -8.50171599497024       -2.74662798231126
H           85.79277172664000       -9.47862395522617       -0.24381745238952
H           84.62081788600243       -7.45845299214520        1.86654974104781
H           85.17371732129563       -5.28231912038180        1.24647620123878
H           83.72879127400920       -4.47102411640795       -0.89297942310414
H           81.85216180989434       -2.55450460654275       -0.64590089727857
H           81.90497512275674        2.49991485873474        0.63376911728001
H           83.81501695353832        4.39200693311345        0.78944081468968
H           85.79515404103171        4.77889252173928        2.55320748294481
H           85.81503123519440        8.31825938481917        2.92752298546536
H           86.71474677257984        9.34937699443898        0.09629369546949
H           87.34866386261402        7.36902447207880       -2.26852665141830
H           87.04427126189306        5.17493770945644       -1.54515041344773
H           89.02137296201180        4.40646613806161        0.13910126843598
H           90.89165912640189        2.47625059608658       -0.09380207118006
C           58.64615641979024       -0.02114713969603       -0.02987973551820
C           59.86228427429975       -0.02374894738020       -0.02311185475339
C           69.48835204409414       -0.00477280572320        0.00359505322721
C           70.70452789637008       -0.00198431660401        0.00705126364753
C           80.32799288624284       -0.02379605276608        0.03882450980925
C           81.54405921431257       -0.03209184670922        0.03141031622500
Ni          64.67685045631271       -0.01406027381376       -0.02977662239219
C           61.27050237772249       -0.02264508562670       -0.02333784022691
C           61.94387842840716        1.15329114881378        0.32135017960729
C           61.28963371127444        2.34901888608049        0.74477422088304
C           62.24243430390182        3.31164591947770        0.81497431083334
C           63.47656425031136        2.70061797571314        0.42742888691482
N           63.28970151191264        1.35913619084754        0.18421062704776
C           64.66674694333237        3.39215606341218        0.23006353772994
C           64.65486785790026        4.86955877425141        0.32308841735619
C           65.49100492932740        5.53023287116168        1.22453311578573
C           65.48768456817842        6.91903615127437        1.31944563157957
O           66.29091428418864        7.57263041887008        2.19862696035201
C           64.64230204999200        7.66902674071878        0.49507384391058
O           64.62041664085746        9.02525225232569        0.55964584851514
C           63.81002899913759        7.00072439672785       -0.40708590014788
O           63.00934062173630        7.79416879126036       -1.18766545125669
C           63.80505202894972        5.61616503797873       -0.49623428965925
C           65.86412387917831        2.74609584379407       -0.05409814657931
C           67.10042876458034        3.41440355109341       -0.32312374094538
C           68.05983452849853        2.45739892794244       -0.37568792437175
N           66.05749512884250        1.38368642049629       -0.01062845801893
C           67.40612607638225        1.20803029221797       -0.15414563484239
C           68.08116385175165       -0.00719288063587       -0.00441649651198
C           67.40803173266684       -1.22469919988726        0.12796229807469
C           68.06423837983881       -2.47553031242837        0.33737476794290
C           67.11163180951002       -3.43569541262755        0.24710212936305
C           65.87574275508835       -2.76745854512479       -0.02532826995964
N           66.06206408505638       -1.40376303088004       -0.03978833665134
C           64.68451528237398       -3.41442343421818       -0.32970708472603
C           64.68658564148166       -4.89112781869373       -0.45744605926531
C           65.51308430880870       -5.51034962330111       -1.39618578293463
C           65.50431211061471       -6.89455305732570       -1.52134439731824
O           66.28827892742724       -7.50855199751109       -2.43896868496854
C           64.67405558572027       -7.66094132547666       -0.70098217091555
O           64.69947795572041       -9.04008332971616       -0.85399121427799
C           63.87661681603795       -7.04624113801166        0.26262605733324
O           63.09090239439125       -7.79362500480060        1.08940096767515
C           63.86849536331465       -5.66031082159594        0.37104960572760
C           63.48928754792848       -2.72917972865219       -0.51206336510014
C           62.25522928292857       -3.34525910138140       -0.89278460230130
C           61.29690178679354       -2.39056380781204       -0.80213471561029
C           61.94757869776490       -1.19366101173536       -0.37512386455870
N           63.29611049317963       -1.39157769896798       -0.25276649927765
H           60.23663673455405        2.42916901111919        0.96085733706075
H           62.12859837979463        4.34219656461552        1.10959552113805
H           66.13880168983927        4.95879597396431        1.87974406131334
H           66.82343510279436        6.95217379600297        2.71338529043351
H           63.97231764135124        9.34965611078708       -0.08633973071058
H           62.47232182942565        7.25877889994496       -1.78613478578605
H           63.16159167164842        5.12258518447778       -1.21503689794661
H           67.21220949726825        4.47789912935906       -0.45782413353521
H           69.11695722307043        2.57425073015826       -0.55195749445259
H           69.11889388651370       -2.59033095536741        0.52856664463067
H           67.22603006300288       -4.50165279811072        0.35723886306450
H           66.14422022999497       -4.92315064479252       -2.05058478564926
H           66.14198418576471       -8.46708717614533       -2.37138207810685
H           63.80468149788125       -9.40373127902578       -0.82885068160200
H           63.38842364494229       -8.71447840611088        1.09248382916525
H           63.24610655169355       -5.19282904492804        1.12299849999414
H           62.14545229372543       -4.37481663444693       -1.19210329159548
H           60.24184013233483       -2.47633470752164       -1.00536404054540
Ni          75.51545337034770       -0.00890293610800        0.01009969286939
C           72.11172033849128       -0.00336411195852        0.00659253448477
C           72.78764451068105        1.18227068582441        0.31008017420769
C           72.13482698093409        2.39420333319883        0.68795008167441
C           73.09209313789000        3.35355858687665        0.73811210437582
C           74.32679204469999        2.72489189120278        0.38104733147892
N           74.13483700806700        1.37726308835561        0.17637628075370
C           75.52208718697491        3.40302851940151        0.17183034890708
C           75.52427795496405        4.88216338241072        0.23538614911929
C           76.36220611533550        5.54885176767144        1.13083239702521
C           76.37287623260043        6.93893111301489        1.20328959740184
O           77.17618462216649        7.59845985551785        2.07771794882048
C           75.54130776881446        7.68401782972098        0.36053126231249
O           75.53382932164030        9.04108613820111        0.40231323262420
C           74.70817526310830        7.00962859632103       -0.53637748492013
O           73.92282522559283        7.79878064240717       -1.33634037980779
C           74.68806179608112        5.62375895983754       -0.60211937773757
C           76.71531888757968        2.74163447441305       -0.09623138302234
C           77.95289487454329        3.39541624083370       -0.39282901113287
C           78.90678510181326        2.43213639485385       -0.42561038249915
N           76.90209424925389        1.38050578041488       -0.01366357235963
C           78.24965361248223        1.19343987559829       -0.15920055950342
C           78.91996254445513       -0.01770791771446        0.03702428816698
C           78.24015567061991       -1.22497207680992        0.22134493123160
C           78.88719156403710       -2.47010255324177        0.48442811153775
C           77.93066031535271       -3.42877967495219        0.41901828598801
C           76.70122369272508       -2.76520271736427        0.10993819088277
N           76.89417742480603       -1.40410192922647        0.05098545854177
C           75.51055063097287       -3.41749629487725       -0.18877258500441
C           75.51458413966513       -4.89600011470940       -0.29052267682526
C           76.35942774787281       -5.52626424360303       -1.20550595422221
C           76.35487714107968       -6.91201707655270       -1.31344518776933
O           77.15937577610342       -7.53630198233167       -2.20526281023179
C           75.50768772586449       -7.66826399862067       -0.50119301628810
O           75.53671155864177       -9.05121977936022       -0.63003340802053
C           74.69143635208763       -7.04241850517351        0.43950586595104
O           73.89334177820474       -7.78252210997507        1.25896950508499
C           74.68151752321654       -5.65524573621954        0.53236582305722
C           74.31901547012993       -2.73389164845621       -0.39637447828327
C           73.08264381367727       -3.35490920070931       -0.76238873479409
C           72.12769392900505       -2.39490333733497       -0.69668231399830
C           72.78369525170456       -1.18897561620812       -0.30389797934004
N           74.13059326156699       -1.38847332058239       -0.17396053485954
H           71.07948050385600        2.48614118057993        0.88808766525306
H           72.98083444564867        4.39350340903695        0.99870676224845
H           77.00015261829618        4.98129080632488        1.79895030683894
H           77.69973295884537        6.98136032410658        2.60558598880067
H           74.89201991847949        9.36170889424367       -0.25182924803322
H           73.37860787591733        7.25993466661398       -1.92504872058656
H           74.04411529905849        5.12533200468046       -1.31712596445728
H           78.06851307940875        4.45398212966562       -0.55922555229809
H           79.96238721795397        2.53848021308961       -0.61586843705901
H           79.93876531874942       -2.58324735541022        0.69242897526014
H           78.03860814172107       -4.49048804771730        0.56967303712444
H           77.00251871554342       -4.94624910091227       -1.85466139388854
H           77.01973828909715       -8.49477928906686       -2.12250646664184
H           74.64270540884299       -9.40798339050360       -0.71323076277953
H           74.17359122272640       -8.70925705124701        1.24391200953700
H           74.04588012268280       -5.17919942619059        1.26768588170052
H           72.96868414584198       -4.39140562427325       -1.03487558453560
H           71.07200279960273       -2.48199479673888       -0.89667420367164
