258
 energy: -490.878950194837 gnorm: 0.000977224093 xtb: 6.5.1 (b24c23e)
Fe          54.02685859047226       -0.02759783852221        0.01123986579394
C           50.64030976173013        0.09427203095690        0.02429450522232
C           51.28480374702935       -0.12009921047080        1.22536991836179
C           50.60278378928869       -0.31862336048924        2.46868842591891
C           51.55563853021243       -0.39083291317880        3.42729163675250
C           52.82075151200286       -0.23592763039673        2.76823636453548
N           52.64076403417715       -0.09036818735546        1.41846306499678
C           54.03391334175983       -0.11229580300834        3.43471022023149
C           55.24043086199382        0.08510534875764        2.77664031852440
C           56.50233271583396        0.21983065751650        3.44189095486994
C           57.45071525281327        0.27105271470440        2.47636752098980
N           55.41873503368117        0.07543494719455        1.41411973426006
C           56.76901637631080        0.15270042113386        1.22534813221237
C           57.43209901420096        0.01323063926549        0.00357039108493
C           56.76175327218991       -0.14370597419124       -1.21258450014153
C           57.43006139521394       -0.34489820693773       -2.45998987642164
C           56.47413904575871       -0.32756085075582       -3.41993966605117
C           55.22469487475438       -0.10399745409172       -2.75541103243214
C           54.01495031963800        0.07342288384061       -3.41389283091788
C           54.01054903325470        0.09459579182950       -4.89476055316617
C           53.28929015143264       -0.86122259351363       -5.61496644993799
C           53.28882044913193       -0.83858222448639       -6.99745359824084
C           54.00363644893786        0.14382532129413       -7.68546176145362
C           53.96908697738182        0.12890331496814       -9.16749687941984
O           54.68439934634542        1.11407122446453       -9.73146703729444
O           53.36437817600223       -0.67875348440510       -9.82584296806382
C           54.72288774633029        1.10221194165588       -6.97079058209335
C           54.72751106865624        1.07366329675836       -5.58722246899881
C           52.80912352529207        0.23685013737377       -2.74201134593669
C           51.55247637601772        0.47655253593501       -3.39157694345723
C           50.60660625290340        0.48536554002239       -2.42335320906297
C           51.28593834325510        0.25907814203617       -1.18323208989206
N           52.63776442849490        0.15512355386328       -1.38599144283022
N           55.41364275150958       -0.03271785008666       -1.39683010428002
C           54.03888670329206       -0.19091897121070        4.91525517360758
C           53.69885967217188       -1.38450857014944        5.55638129448714
C           53.71218328266050       -1.46214372825249        6.93693212206896
C           54.06173219829221       -0.34703790611827        7.70080125412341
C           54.06463824521664       -0.48094706487009        9.17746506467059
O           54.44061527645975        0.63663852533221        9.81725718535636
O           53.76370248040266       -1.48596445854799        9.76968800964870
C           54.39607675821749        0.84867694121446        7.06455065882147
C           54.38547380666412        0.92338408046765        5.68244924583550
H           49.55675882452461        0.12813777759919        0.02898301173746
H           49.53159184201128       -0.38316525436875        2.57494327407801
H           51.42575624976096       -0.51925540768639        4.48959433272870
H           56.63750084443390        0.25302360345947        4.51058499433764
H           58.51953749126290        0.35964922128715        2.58598854941269
H           58.49370818265074       -0.48160626399825       -2.57079219802183
H           56.59351325355250       -0.45908623598197       -4.48300574796896
H           52.74281495495381       -1.63125236230273       -5.08247929667546
H           52.73639603673643       -1.58072292054628       -7.56327197042266
H           54.60938271061342        1.03367789218454      -10.69623660875880
H           55.27618245908853        1.86852399633690       -7.50068246969283
H           55.27715909364832        1.82491493168671       -5.03140390009002
H           51.42446325153172        0.62106651079083       -4.45206182826617
H           49.54186531299043        0.62611077912020       -2.52036850347028
H           53.43943573867040       -2.25438341520797        4.96384016688656
H           53.45527436008447       -2.38673791952330        7.44211822997709
H           54.41743603181804        0.46628113199352       10.77292554485287
H           54.66291164497144        1.71791299618213        7.65393076931370
H           54.63423667878521        1.85546768223016        5.18783576055733
Fe          94.25716041358639        0.00783829999317       -0.04705765040986
C           97.64209421106673        0.08511480600121       -0.05987262591425
C           96.99252428348547        0.01097180605076       -1.27525015685627
C           97.66710141234500       -0.05326124183514       -2.53671850015988
C           96.71013064172165        0.00366181325721       -3.49252842288728
C           95.45006169310278        0.10382234738052       -2.81356513043177
N           95.63653148439586        0.08041258417113       -1.45745830183702
C           94.23855621284959        0.34156881202928       -3.45262234796346
C           93.03933527185747        0.48573955142475       -2.76808364396622
C           91.77935215018216        0.74365047870315       -3.39984598350670
C           90.83456432678148        0.67798383404484       -2.43130350379827
N           92.86304659323098        0.28727543065659       -1.41969278342516
C           91.51621564161313        0.36535737475620       -1.21419384745655
C           90.85392656782065        0.04421226853315       -0.02492865113408
C           91.52835280800126       -0.29525651647413        1.15248017429988
C           90.86502539797769       -0.67427801882162        2.36057792644320
C           91.82335875726626       -0.78212673586601        3.31247516091285
C           93.06928366439669       -0.45750301438887        2.68372698005140
C           94.27833914203127       -0.34971428452208        3.35825949355567
C           94.28654626268489       -0.51340697791967        4.82978040800601
C           95.03242548757403       -1.53385229012076        5.42564219788298
C           95.03710040320253       -1.68263478740927        6.80026595979948
C           94.30184459519981       -0.81024710710192        7.60507772924454
C           94.34252082263096       -1.00724246149495        9.07405079395642
O           93.60772696526746       -0.11552026200016        9.75573932112047
O           94.96796953430074       -1.87596357929586        9.62672647177860
C           93.55752568959828        0.21172477579872        7.01510202042041
C           93.54883172137687        0.35476960928895        5.63870299132243
C           95.48080131648558       -0.08887378507578        2.70991631257120
C           96.73752454649733        0.08384114101351        3.38020679077185
C           97.68124601411661        0.20725721508029        2.41738755083603
C           97.00026024140114        0.11929300594242        1.16075542935657
N           95.64970142634799       -0.01418485265806        1.35372802671394
N           92.87594624078814       -0.20651856637503        1.34711237706251
C           94.22736801231210        0.44703714367459       -4.93135071951440
C           94.52849487909899       -0.66925101599769       -5.71531150613461
C           94.50435271794115       -0.57873229274562       -7.09487502442903
C           94.18337996893385        0.63032353508159       -7.71481970277211
C           94.16355902140879        0.67526939044263       -9.19669390047807
O           93.82190616890519        1.87380310566200       -9.69307289960351
O           94.42294080348879       -0.26115487107142       -9.90888320738601
C           93.89031779475786        1.74971447401493       -6.93543243720691
C           93.91119284074553        1.65607771611757       -5.55456643392286
H           98.72583781014340        0.11231842960596       -0.06440986873803
H           98.73667555680294       -0.12269908348476       -2.65546227737588
H           96.83458485559049       -0.00121092868772       -4.56321506725957
H           91.64221913830086        0.93326849048722       -4.45186151656499
H           89.76794103184605        0.80637698770739       -2.52128601761089
H           89.80258479159272       -0.83224540728715        2.45331303482659
H           91.70766255162131       -1.06023478980570        4.34733545308223
H           95.59472171497885       -2.21906245215650        4.80158526011411
H           95.60877554280131       -2.47583325748106        7.26943809676962
H           93.68788693340997       -0.31160172567216       10.70335780391719
H           92.98811572303947        0.89304845792501        7.63614241177064
H           92.98013385635990        1.15610663725374        5.18061230729851
H           96.86742903394408        0.10880148001419        4.44997287188614
H           98.74539427259455        0.34224327269644        2.52811853670978
H           94.76524357145115       -1.61163016107656       -5.23471097734002
H           94.72999934962327       -1.44248876842460       -7.71058384678694
H           93.83067065511388        1.81899022353595      -10.66248938073938
H           93.64666948029239        2.69146128400309       -7.41279925878396
H           93.69391100562575        2.52827110840450       -4.94848109363116
C           60.06041487250246        0.02953107677590       -0.01096926446891
C           58.83881279762468        0.01776589404059       -0.00242556235238
C           61.41110962921938        0.03819444215968       -0.01937619781758
C           62.63295131979712        0.04704102952198       -0.02799338837998
C           73.47470570817880        0.02996796542770       -0.00919214684280
C           72.25021176420188        0.02582554865262       -0.02062900542350
C           74.81977747552961        0.03563795844513        0.00345531149383
C           76.04433785451637        0.04178554127112        0.01013627016298
C           86.87787618510690        0.06023205917191       -0.00721526652477
C           85.65504925353154        0.06392930537445       -0.00533673605796
C           88.22686252124697        0.05676160725414       -0.01202040552362
C           89.44947326605312        0.04834286478846       -0.01649153448683
Fe          67.44359662143547        0.03687439104918       -0.03669378755611
C           64.03825684725808        0.04670347116065       -0.03641005070917
C           64.70543203929469       -1.16066861196529       -0.26896807493460
C           64.03857060923218       -2.39679629274027       -0.53302525700032
C           64.98957115874344       -3.36268586575062       -0.51263090339532
C           66.23281256656630       -2.71109109347968       -0.22807384186987
N           66.05010548051642       -1.35465507848090       -0.13756151746498
C           67.43001024188894       -3.37856074298266        0.01015882051395
C           68.63469782282041       -2.71818772030131        0.21388432020012
C           69.87567413664055       -3.37118264128412        0.50680062806778
C           70.83491377195882       -2.41355151522872        0.48617808549835
N           68.83050060995026       -1.36531710703280        0.07602522827032
C           70.17477287465006       -1.17996954303291        0.19504120899040
C           70.85121414072772        0.02674958984236       -0.03005000834715
C           70.18235575106644        1.23600320269693       -0.26554128208401
C           70.85153160278695        2.46432258337615       -0.55817800142345
C           69.89793963273983        3.42718862151241       -0.59065072616533
C           68.65140886160928        2.78303525813999       -0.30138190754035
C           67.45102705806778        3.45214160384349       -0.10003238071171
C           67.45147568629764        4.93158606388061       -0.14128562032281
C           68.24180524401022        5.66511132930790        0.74781931866564
C           68.24836820896124        7.04680632299065        0.69826213895376
C           67.46876223153647        7.72070688860209       -0.24364849837286
C           67.51749703321778        9.20298356718973       -0.26392025329713
O           66.73201339523170        9.75235161916619       -1.20208395490356
O           68.19408715268578        9.87083091999127        0.47601541948171
C           66.67625143174193        6.99312541903037       -1.13186817977963
C           66.66664825434769        5.61036447341048       -1.07709223525020
C           66.24899393882124        2.79296699712211        0.13835672767226
C           65.01058165858458        3.45211536962940        0.42633044902723
C           64.05418268953269        2.49151035212570        0.45325929788452
C           64.71280329109676        1.25114067133334        0.18905123602856
N           66.05778151273530        1.43777783698759        0.04893407131768
N           68.83821533367734        1.42910838520100       -0.15942135291265
C           67.41568285540900       -4.85800466095245        0.05709227983439
C           66.63084583854136       -5.52319913736330        1.00294632548109
C           66.62510641470114       -6.90468779993486        1.05672945048271
C           67.39748428204972       -7.64659109105597        0.16119868328995
C           67.35832101992945       -9.12617170401685        0.25940844868312
O           68.13275308386507       -9.74432878578133       -0.64417875855927
O           66.70150890546307       -9.73604095631810        1.06397262831782
C           68.17744800938625       -6.98729667245273       -0.78914594718813
C           68.18775759546936       -5.60414245235227       -0.83673351965121
H           62.97885947472539       -2.49816595179878       -0.70300708332128
H           64.86986336909101       -4.42117679961786       -0.67650242065861
H           69.98894448131162       -4.42471881796542        0.70374752432273
H           71.89529591079719       -2.51854547554929        0.64990764782074
H           71.91350404122005        2.56266751844702       -0.71551284299582
H           70.01913057348754        4.47880682776248       -0.79291094920377
H           68.83842456096235        5.14362772623099        1.48755478525226
H           68.85646916775515        7.62259026578384        1.38731231289053
H           66.82217521508720       10.71794351596466       -1.15306318096634
H           66.07129353676076        7.51224293786903       -1.86579504930371
H           66.06192307920456        5.04439233527151       -1.77662439426235
H           64.89748537048891        4.51152427515937        0.58912905078745
H           62.99576427763801        2.59900801444713        0.62772161851954
H           66.04028660995358       -4.94790028224057        1.70678830678594
H           66.02487854131157       -7.42765394594748        1.79313711191144
H           68.05262508151471      -10.70326822876421       -0.51370364223659
H           68.77458715994504       -7.55969171102632       -1.48904828729218
H           68.78503130372729       -5.09158086435900       -1.58229382477022
Fe          80.84863993071980        0.05259736019612       -0.00028471374384
C           77.44312411350144        0.04498896149955        0.01173431987441
C           78.11871288708019       -1.17751202679960       -0.11005343059398
C           77.45908734133640       -2.43220608059396       -0.29078686250464
C           78.41862951930847       -3.38784379705093       -0.22550063520850
C           79.65889776943126       -2.71126604766092        0.01091347700961
N           79.46291608185977       -1.35157498000670        0.02379400875160
C           80.86216916937131       -3.34825339571832        0.28789320530149
C           82.05620493965039       -2.65895955935920        0.47458085858328
C           83.29565213890785       -3.27426683071044        0.84328656402244
C           84.24611108990050       -2.30959105328351        0.77392183632935
N           82.24038122879494       -1.31949550852133        0.24305653632886
C           83.58273405713513       -1.11048009166072        0.36889148871945
C           84.25199851881281        0.06155679007623       -0.00364074926244
C           83.57561446639249        1.22897622248482       -0.37790488251660
C           84.23112135264358        2.42825104721824       -0.79461411460238
C           83.27476813038469        3.38658160193540       -0.87130069141713
C           82.03989977904297        2.76814400534145       -0.49223863869436
C           80.84323509527704        3.45266262472263       -0.30302274631829
C           80.84867603373814        4.92816234310693       -0.41328857787085
C           81.66698992897133        5.69262693582079        0.42320905753679
C           81.66605939469422        7.07192430408174        0.32931118361511
C           80.85143618140374        7.71275310283875       -0.60598962056914
C           80.88485344897805        9.19451573457739       -0.66724335386143
O           80.05635963215506        9.71204643247572       -1.58592959271808
O           81.58131155482427        9.88733173568930        0.02990138922889
C           80.03689521450498        6.95419814301354       -1.44703758423932
C           80.03524688169128        5.57376365114743       -1.34815438015392
C           79.64596382646680        2.81097852745378       -0.00976002491936
C           78.40493721745112        3.48220299596481        0.23786700608803
C           77.45052831347215        2.52219222964934        0.31514084714897
C           78.11414626048084        1.27030653081941        0.13044287862675
N           79.45639503158480        1.45040775744124       -0.01570185359860
N           82.23245249689369        1.43148371704004       -0.25043765624746
C           80.87710799924417       -4.82518149124087        0.38056584458180
C           80.08738049651912       -5.48750568859775        1.32412102368174
C           80.09801613022678       -6.86830303887604        1.39573123188586
C           80.89297301070565       -7.61220914929735        0.52185602322849
C           80.85930076516513       -9.09129497756183        0.62854053810121
O           81.66124667063352       -9.71064530689044       -0.24979409875344
O           80.18375515896483       -9.69983573161436        1.41847543037676
C           81.68508402835418       -6.95547243607857       -0.42019325703059
C           81.67857353918221       -5.57325368286513       -0.48580132090620
H           76.39887264509724       -2.55188563151386       -0.44521021923496
H           78.30511759762717       -4.45469175275409       -0.32784442603116
H           83.41325690442268       -4.30905404722770        1.12087408577432
H           85.30353305257535       -2.39056440770211        0.96759124398583
H           85.28755890442262        2.51338517359087       -0.99190370928810
H           83.38627990843831        4.41898337367641       -1.15995762802086
H           82.28915725292129        5.19722206298345        1.15983893149197
H           82.29332838810454        7.67154560979677        0.97975988960465
H           80.13591917684731       10.67957722164961       -1.56229597797848
H           79.40675576719769        7.44748307050349       -2.17759573822810
H           79.41227597375222        4.98381591587410       -2.01088717125280
H           78.28741506420990        4.54861892967880        0.34025438293995
H           76.39148181184939        2.63722514432898        0.48084195163208
H           79.47803200487802       -4.91082144637913        2.01054748960867
H           79.49067713249914       -7.38943469063699        2.12758922689367
H           81.58116097105189      -10.66929627931122       -0.11722861715897
H           82.30227198972854       -7.52912625643605       -1.10141570301775
H           82.28347437952569       -5.06271307530742       -1.22661247943379
