254
 energy: -452.400336317883 gnorm: 0.000160249721 xtb: 6.5.1 (b24c23e)
Zn          40.71189510156982       -0.27348727212015       -0.18407025279958
C           37.29260197267960       -0.22623280713781       -0.15666254560497
C           37.93066236320128        0.65041547555163        0.71228363688990
C           37.27012181674643        1.56017404656772        1.60593467652716
C           38.24040386551995        2.23312130314653        2.27552916732754
C           39.50122346929157        1.73980752877905        1.79660497421177
N           39.28443729245103        0.78556544793130        0.85377493944821
C           40.76323022367167        2.17942498570894        2.23887434461396
C           40.78348542424466        3.18542216166176        3.23033459902296
C           40.79929247614144        4.05015537737014        4.08180409552244
C           40.82010519123615        5.05743887276084        5.07308973223559
C           42.02766987961635        5.55556502699394        5.57682576811425
C           41.99387067670171        6.54169044089340        6.54638172933994
N           40.86237339078398        7.04756341550346        7.03093012628947
C           39.71022939892968        6.57947692004966        6.55724608395494
C           39.63453775848708        5.59510113431048        5.58823451339641
C           42.00500627268124        1.70486817557199        1.77968084940986
C           43.28135875934193        2.16464752691737        2.24380018988370
C           44.22669375558343        1.46711739568949        1.56162249496314
N           42.18969806355607        0.74281752538137        0.83019104817565
C           43.53322784757716        0.57771787128693        0.67689995312811
C           44.15585146611618       -0.32219074249468       -0.21071191982844
C           43.49392977255123       -1.20322349366546       -1.08909802260605
C           44.14818626832913       -2.11074282269407       -1.98527043237390
C           43.17311441267024       -2.78065357486558       -2.65303459419475
C           41.91767995764027       -2.28591366316618       -2.16844527907679
N           42.14412529765035       -1.33029852145147       -1.22145914118253
C           40.65618378629173       -2.72555070689328       -2.60799807193064
C           40.63287970537215       -3.73141210330873       -3.59950678434457
C           40.61184272433520       -4.59676048953161       -4.45022430169378
C           40.58744356557998       -5.60483526956815       -5.44060295566542
C           41.77129965814505       -6.14433078000067       -5.95776417846772
C           41.69240805056210       -7.12973635856278       -6.92545808565201
N           40.53869009257662       -7.59711142370524       -7.39605285793877
C           39.40882939333414       -7.08941753118938       -6.90964444457575
C           39.37822899785002       -6.10214491322770       -5.94114302512048
C           39.41409464801544       -2.25136802469802       -2.14563071624082
C           38.13261744756505       -2.70917990177444       -2.60448817949632
C           37.19221398810355       -2.01024586846655       -1.91907086586681
C           37.89197414595277       -1.11982819981396       -1.03583105130683
N           39.23902536931875       -1.29226781277216       -1.19908776190148
H           36.20702064285057       -0.21122646026279       -0.14784118768892
H           36.20035167554409        1.66214759444956        1.70017172655938
H           38.12399036157763        2.99683787201550        3.02825684550548
H           42.97227003852117        5.17202730546680        5.21039393420950
H           42.91579706885830        6.94591341046804        6.95461193488503
H           38.80611122079043        7.01396804454308        6.97415510436539
H           38.67424156830106        5.24316398520188        5.23095454390960
H           43.42724913412619        2.92404455395139        2.99554710859812
H           45.29927638371703        1.54243252716902        1.64419426314313
H           45.21673364999912       -2.21609866258974       -2.08513406402451
H           43.28590299127137       -3.54282081046918       -3.40765172289628
H           42.73271997496668       -5.79301576579320       -5.60295200227540
H           42.59511342219796       -7.56573691234873       -7.34381900991586
H           38.48555011539025       -7.49309873242709       -7.31536806017945
H           38.43483865106280       -5.71715155813204       -5.57307798290848
H           37.98312537575186       -3.46867939703405       -3.35564046188298
H           36.11866383760015       -2.08249966169682       -1.99619715810669
Zn          96.62163325323812       -0.33361146595371       -0.21172061022988
C          100.04126087841357       -0.36149984616742       -0.23499053220358
C           99.41080047698919       -1.56085661531939       -0.54283987568869
C          100.07897290606537       -2.79049574722431       -0.86559539309522
C           99.11437947448459       -3.71651559953791       -1.09955286774338
C           97.84956790119105       -3.06009010676211       -0.92169817446777
N           98.05825846586613       -1.75990123957822       -0.58642502395272
C           96.59128729674552       -3.67278224640964       -1.07219254818975
C           96.57832392606421       -5.04064514891223       -1.42455636999650
C           96.56591232989368       -6.21595900834261       -1.72698756068115
C           96.55008965644456       -7.58477187219591       -2.07876659176881
C           95.34503464341701       -8.27555125291697       -2.25411949381036
C           95.38384927098357       -9.61487812892167       -2.59811741463626
N           96.51791228721851      -10.28886859652930       -2.77307133342014
C           97.66768908005157       -9.63941835160578       -2.60830124578388
C           97.73837981425785       -8.30123726270190       -2.26485946230260
C           95.34581580467596       -3.04189729387972       -0.90298900941827
C           94.07352227897533       -3.68336278123044       -1.06233396691579
C           93.12238671250306       -2.74475474176483       -0.81784161475658
N           95.15301624878423       -1.73397261650967       -0.56605307353437
C           93.80825547167194       -1.52488374311066       -0.50757231052481
C           93.17731705397044       -0.30386651865359       -0.19541590310989
C           93.83122733878346        0.90551520254600        0.11289631539012
C           93.16933600722615        2.13677676443931        0.42988490122926
C           94.13881838808464        3.05863027207436        0.66642405589385
C           95.39845569157450        2.39551313384222        0.49470207581623
N           95.17998022450216        1.09123198425128        0.15950107605196
C           96.65645584761552        3.00496553670409        0.64965955845450
C           96.67262228870543        4.37270100832459        1.00247207049526
C           96.69048663891006        5.54781130127655        1.30548157453137
C           96.71031523096178        6.91664725361588        1.65704179523210
C           95.52398624443262        7.63681166638545        1.84145282112442
C           95.59830702659352        8.97489899720465        2.18448175796862
N           96.74985736859330        9.62093482152314        2.35041636664362
C           97.88205887136313        8.94339819061826        2.17723833405651
C           97.91723354913029        7.60381401469426        1.83381368781654
C           97.90248288876255        2.37155901206567        0.48255172993869
C           99.18011554432937        3.00766428555725        0.64206857755716
C          100.12637277581904        2.06645510348120        0.39432266203996
C           99.43418047728389        0.84758874005093        0.08163609802565
N           98.08569696404136        1.06820544583281        0.14465177765516
H          101.12692008352487       -0.37000037938195       -0.24279889431597
H          101.14953490507850       -2.91704364141186       -0.90511692641545
H           99.23702524155615       -4.75366411147272       -1.36918445465241
H           94.39847240918121       -7.76554988114079       -2.12156131115589
H           94.46398352061870      -10.17488971155909       -2.74035989987113
H           98.57401190977365      -10.21906569217854       -2.75863237754494
H           98.69683342630027       -7.81170296012153       -2.14080586452891
H           93.93390938498048       -4.71927683401192       -1.32774711552079
H           92.05059098069701       -2.86064474904104       -0.84345276884234
H           92.09982968904065        2.27043461177026        0.46514389796735
H           94.01977676494751        4.09669948807387        0.93352492475790
H           94.56421845237760        7.15015275430119        1.71639314264424
H           94.69357931967708        9.55737709507151        2.33341219591518
H           98.80346130631403        9.50066468385454        2.32040788154209
H           98.86245319066194        7.09091973607020        1.70271705762122
H           99.32337356444015        4.04276775233998        0.90936320097063
H          101.19927446790645        2.17602767765451        0.41800739997837
C           45.56162086395087       -0.34486121980730       -0.22255812094147
C           46.78560520582502       -0.37211046425100       -0.23790246618395
C           48.12829441469789       -0.40484571683331       -0.25697578296692
C           49.35807324858485       -0.43907113720479       -0.27922107632417
C           50.69573054462492       -0.47696950130735       -0.30397177904997
C           51.92543690885373       -0.51384626762701       -0.32811735906782
C           53.26773543517144       -0.55143517633728       -0.35356733289792
C           54.49157618921023       -0.58526295866297       -0.37699799616993
C           64.19976796659863       -0.64101990891699       -0.41760123381317
C           65.42470649710258       -0.63057813251291       -0.41132808381875
C           66.76679525737055       -0.62308095029057       -0.40656452718566
C           67.99781614859435       -0.61829170918540       -0.40246527500979
C           69.33521586521384       -0.61554478673762       -0.40064272556141
C           70.56625712529551       -0.61459422038027       -0.40135039358354
C           71.90836852722356       -0.61565381498609       -0.40307505496122
C           73.13336289667130       -0.61886642499015       -0.40576969520036
C           82.84079891371231       -0.50057080497152       -0.33080446521305
C           84.06445925137771       -0.46047010164762       -0.30498056551921
C           85.40651048444366       -0.41854643199348       -0.27788586052642
C           86.63626972326837       -0.38095670465023       -0.25431107243700
C           87.97398536364226       -0.34672489612226       -0.23249938545636
C           89.20407930778131       -0.31992280731929       -0.21497266989981
C           90.54705584586974       -0.30361796439836       -0.20222621653739
C           91.77145229665076       -0.29538157238405       -0.19487058386750
Zn          59.34589816413762       -0.65614044686423       -0.42796306782315
C           55.89656767069098       -0.61541933852721       -0.39853922295158
C           56.53995467661672        0.09906654671185       -1.42882091159876
C           55.86681884829241        0.83255137974757       -2.45936738409967
C           56.82777548956258        1.36737941566865       -3.25737305454279
C           58.09236386580040        0.96628889408876       -2.71536009730744
N           57.88688372888890        0.19779605554251       -1.60746966698689
C           59.34516552299142        1.32030665801016       -3.24805278629264
C           59.34386984907869        2.11155702362156       -4.41866539178462
C           59.34067332491699        2.78058993302750       -5.43119583363406
C           59.33430533643881        3.55471911318143       -6.61386706416741
C           60.52717996709140        3.94797380734460       -7.23202493096513
C           60.46494654037776        4.70067304853119       -8.39110054454366
N           59.31929106212969        5.07473233520503       -8.95530631871854
C           58.18091384577344        4.70544934518159       -8.37344414367029
C           58.13361501990646        3.95298602377419       -7.21357980114401
C           60.59802399956401        0.95682994728540       -2.72278135605990
C           61.86249680540126        1.34790188627557       -3.27217433510959
C           62.82389981368120        0.80323716391602       -2.48130347758150
N           60.80423267533024        0.18527496305115       -1.61670546390152
C           62.15106494545411        0.07405786905070       -1.44754928488818
C           62.79545560953635       -0.65016475124905       -0.42392587666327
C           62.15132108202724       -1.38857562313537        0.58965656032668
C           62.82435536338242       -2.13479710435825        1.61104510276784
C           61.86307700685462       -2.70773666923437        2.38183474241222
C           60.59849079162743       -2.31124487108681        1.83657522404607
N           60.80452123248941       -1.51195055797708        0.75034554363291
C           59.34567295430142       -2.68901890944032        2.35174096626194
C           59.34435982707905       -3.53690644058900        3.48200837620971
C           59.34103296349386       -4.27126451894283        4.44820619291963
C           59.33486387374982       -5.12845043425122        5.57213917226586
C           58.13438199782552       -5.55997068885061        6.14881169785641
C           58.18209055035329       -6.40030686887078        7.24667400947533
N           59.32066102859363       -6.82462302714886        7.78929493783334
C           60.46612376036305       -6.41887418684047        7.24701405615118
C           60.52794728925863       -5.57939505915403        6.14914310900627
C           58.09282634815480       -2.29874660753147        1.84508758206828
C           56.82832874837781       -2.68236814446787        2.39981962600991
C           55.86724007179653       -2.09928510365127        1.63653184256924
C           56.54019239949012       -1.36004782838789        0.60999316332137
N           57.88715667179822       -1.49773694533760        0.76050893189038
H           54.79634968776681        0.92076959252718       -2.55495305856260
H           56.69906419937213        1.98116682971601       -4.13469430718281
H           61.48246422666632        3.66470652884316       -6.80681234018389
H           61.37483918010960        5.01886791706595       -8.89189973539329
H           57.26467975931536        5.02743731586950       -8.86004883057716
H           57.18393588090049        3.67359358650313       -6.77348291794354
H           61.99078607385552        1.96203868735750       -4.14931827688560
H           63.89445438627045        0.88241868173331       -2.58361950963187
H           63.89494253077356       -2.20781492520817        1.71754587280248
H           61.99153807117791       -3.34182909335693        3.24463838140991
H           57.18454305877612       -5.23881227365306        5.73856865561453
H           57.26602892427503       -6.75048133986026        7.71375091107857
H           61.37618915642943       -6.78393930945729        7.71440887757332
H           61.48306330716301       -5.27380027398327        5.73928937784982
H           56.69977289629120       -3.31534879684024        3.26341758485325
H           54.79678390107703       -2.16145565544264        1.75091926427508
Zn          77.98731242781275       -0.60361571232597       -0.39971221905335
C           74.53770941569906       -0.61975412348560       -0.40772551995898
C           75.18098219474150        0.11166104332997       -1.42692908210757
C           74.50708315978160        0.83882609244906       -2.46139579212975
C           75.46772799330786        1.39226218577765       -3.24708666336772
C           76.73275090046596        1.00887965257551       -2.69356369464726
N           76.52764452556593        0.23278068909091       -1.59047695070374
C           77.98509673200061        1.38363459839467       -3.21212501938641
C           77.98516048721329        2.17730194214814       -4.38109278040703
C           77.98659519328292        2.84808141118975       -5.39246814951936
C           77.98938684383398        3.62443629636538       -6.57368743058476
C           79.18773348587018        4.03735173540793       -7.16810171900374
C           79.13623728343407        4.79189690825611       -8.32645581489935
N           77.99595650594144        5.14976410511214       -8.91169591371367
C           76.85247925240411        4.76150860678163       -8.35266356308365
C           76.79445488060159        4.00555705141609       -7.19551385984539
C           79.23819623307602        1.03857779848577       -2.67433122526345
C           80.50195599240502        1.45236495413364       -3.20861516229665
C           81.46350810075643        0.92227373957912       -2.40814938554234
N           79.44477797458859        0.26738233707600       -1.56849114567839
C           80.79159848308309        0.17865573272682       -1.38410059387465
C           81.43621105278054       -0.53925919376041       -0.35687200332205
C           80.79398390081175       -1.29713080773509        0.64275927359465
C           81.46818345013105       -2.04098749517148        1.66511572378339
C           80.50821701821806       -2.63509164542636        2.42132290165306
C           79.24315038184309       -2.25358813052287        1.86647596696935
N           79.44741633606303       -1.44322544104711        0.78855738988602
C           77.99103849065094       -2.65342827318735        2.36740711292060
C           77.99341260774226       -3.50965876697716        3.49136880965407
C           77.99641458947653       -4.25204654086821        4.45141277863436
C           78.00194522430766       -5.11875842427475        5.56802105709055
C           76.80851132953605       -5.58220725999170        6.13431737753500
C           76.86947038764502       -6.43109641806288        7.22497031594410
N           78.01442121953789       -6.83457008944650        7.77002193469719
C           79.15330879543494       -6.39833972655051        7.23761264407280
C           79.20187296883655       -5.54795400263148        6.14754923463109
C           76.73756515291856       -2.27844281419198        1.85171497428440
C           75.47368328416752       -2.68438982092687        2.39161645849288
C           74.51138373459081       -2.11278666100367        1.62110112664390
C           75.18310484354231       -1.35804035191951        0.60514569004812
N           76.53012556342246       -1.47462687159055        0.76910472627854
H           73.43640749387720        0.91068426529798       -2.56777251786696
H           75.33852859072874        2.00776563733663       -4.12313719839751
H           80.13888538265627        3.76761760989665       -6.72517388163972
H           80.05058076113340        5.12527693918487       -8.80892795579449
H           75.94091933825430        5.07058675275291       -8.85613026789283
H           75.84088095502385        3.71052828081400       -6.77447445574612
H           80.62972485305416        2.07062974759223       -4.08292365634998
H           82.53365452234307        1.01954854605046       -2.49839419013693
H           82.53865839529217       -2.09849367182773        1.78175009503201
H           80.63788124435931       -3.27423202903019        3.28020708635089
H           75.85379378998918       -5.27893157787838        5.72181626670492
H           75.95912042526211       -6.80602111674759        7.68393183079744
H           80.06892985453271       -6.74700111530071        7.70667756096144
H           80.15195167865872       -5.21729795546885        5.74549455508714
H           75.34630692281100       -3.32340856355241        3.25093729777042
H           73.44092607338770       -2.19219221265264        1.72428035911756
