300
 energy: -454.167200727818 gnorm: 0.000629544862 xtb: 6.5.1 (b24c23e)
Zn          53.27284064357811        0.01620836759394       -0.00637398176044
C           49.85442847348605        0.07955811425799       -0.01093081252245
C           50.49408512692824        1.08899574513750        0.69973085888309
C           49.83418069457007        2.14541658978725        1.41675695620164
C           50.80345413675447        2.91422904951254        1.97396627838952
C           52.06766474498359        2.33433118536180        1.60595227998608
N           51.84510194991325        1.23256844535846        0.83225096048341
C           53.32037410211446        2.82013062211910        1.98909338023403
C           53.34335125737812        4.05015088444973        2.83451341343644
C           53.41276625233326        5.30777135904958        2.22785499111607
C           53.46418065751192        5.41406401380366        0.72682198449948
C           53.43415954582324        6.44916601527421        3.02018370445091
C           53.38714579623748        6.35641918659106        4.40777238770081
C           53.43190337163339        7.60100343936335        5.25294767103937
C           53.31924054809546        5.10040457718407        5.00106220427194
C           53.29626666405223        3.94565336921300        4.22705839899564
C           53.22101013472368        2.58852908237320        4.87475438568593
C           54.55460798663125        2.26420319427363        1.64493808428164
C           55.83312741987970        2.77396349177068        2.05654259574997
C           56.77873092661463        1.96989061389349        1.50613663337582
N           54.74646961146939        1.16063938551336        0.85824292637650
C           56.08836986925260        0.96273287135292        0.75309257386878
C           56.71306536094541       -0.04692181366672       -0.00381389795885
C           56.05354071631542       -1.03419304049639       -0.76025902704447
C           56.70797219823300       -2.06688873466942       -1.51072864116907
C           55.73449739973991       -2.83652969430619       -2.06185294403001
C           54.47471064266070       -2.27937319887132       -1.65377934041232
N           54.70545498070613       -1.18302293437678       -0.86740628775880
C           53.22138832598727       -2.78880796164524       -2.00095015467717
C           53.19926418704738       -4.01887370808824       -2.84635819251399
C           53.16896016759006       -3.91180486252157       -4.23980921507337
C           53.15838500908136       -2.55211744626186       -4.88639674231880
C           53.14991699052071       -5.06559584472267       -5.01392829285882
C           53.16083024868794       -6.32454782489437       -4.42058515629531
C           53.12273796320758       -7.56346031144912       -5.27441582319059
C           53.18968400206334       -6.41967038117140       -3.03372040742420
C           53.20971974705147       -5.27798810485092       -2.24039444432984
C           53.24342888368829       -5.38755761480743       -0.73909149426976
C           51.98665714485283       -2.25584769775966       -1.62209362576656
C           50.70272080309685       -2.78770697953947       -1.99454985573995
C           49.76119586153783       -1.98348216021178       -1.43982228175126
C           50.45797872576824       -0.95277604011030       -0.72024130030158
N           51.80307920065097       -1.14670723074538       -0.84879132890758
H           48.76899733910891        0.09966639510816       -0.01224514766040
H           48.76451486756325        2.27248467979146        1.47788583498147
H           50.68489360986666        3.79697610478824        2.58237103257050
H           52.58784608331712        4.93784998580689        0.28287273425424
H           54.35049919523957        4.90562566958569        0.34213160698280
H           53.49444175264558        6.45623036081518        0.41017032439215
H           53.48698209337331        7.42542255163148        2.54920870554458
H           52.98461486870066        7.42418628493900        6.23126754520054
H           54.46861484518799        7.91140056155083        5.40315698144363
H           52.90176498735342        8.41965057058908        4.76514024474052
H           53.28230960110876        5.01848439431429        6.08252394291178
H           54.07817203250581        1.98018018570927        4.57978557370355
H           53.20997544891624        2.67458068407930        5.96092972607931
H           52.31650884032560        2.06684693772167        4.55576515860413
H           55.97981607293392        3.63753623445208        2.68565478766049
H           57.85082986694044        2.04843283304455        1.59402566869467
H           57.77671486584262       -2.18463611451056       -1.59603540685269
H           55.85051984215818       -3.70596197702864       -2.68932126630823
H           52.28203565066759       -1.98669280756882       -4.56348808877505
H           53.13917208854726       -2.63658904275747       -5.97258040356745
H           54.04571125368538       -1.98713301759127       -4.59429317886234
H           53.12771670226208       -4.98306500493191       -6.09576903049037
H           53.76580061358737       -7.44985909230270       -6.14806294428739
H           53.44762707366363       -8.43712928265898       -4.70921778130975
H           52.10416992600113       -7.74262497204624       -5.62633321423224
H           53.19836871779430       -7.39691689063932       -2.56195221358622
H           52.37707012479172       -4.88613213212750       -0.30333247992092
H           54.14040174107115       -4.90613768945940       -0.34459426189679
H           53.23919737285339       -6.43054019607605       -0.42371410084010
H           50.55303539123138       -3.66471154003102       -2.60439178314278
H           48.68771767893177       -2.07038978629653       -1.50438515254867
Zn          86.07381263632327       -0.04685638635967       -0.05465004752579
C           89.49413109600430       -0.05793727326216       -0.07982997751775
C           88.86382095828441       -1.09080182305437       -0.76466791788808
C           89.53373598490903       -2.14767503447534       -1.47157861608670
C           88.57162237474927       -2.94621560274638       -1.99859914886600
C           87.30193073563215       -2.38572375998120       -1.61981233281538
N           87.51406370178680       -1.26331944548833       -0.87338800826023
C           86.05333005574400       -2.91101164862423       -1.96212638277176
C           86.04254548536819       -4.15747418780397       -2.78358074330286
C           86.03029251724665       -4.07480627805472       -4.17860235178388
C           86.02689680755186       -2.72710085513907       -4.84989655680519
C           86.02122844268305       -5.24220760525300       -4.93327428788747
C           86.02482016744844       -6.48999559168059       -4.31866162792287
C           85.99456763830247       -7.74791894866925       -5.14450845011795
C           86.03524014409103       -6.56101513105358       -2.92926276331188
C           86.04450053568208       -5.40632774524204       -2.15575465398377
C           86.05535169327841       -5.48965632517197       -0.65245142392545
C           84.81347107898557       -2.37804433632179       -1.60244479610205
C           83.54057590867689       -2.94025454880254       -1.95814717757091
C           82.58661625447370       -2.13827383651088       -1.41921846045860
N           84.60941147098262       -1.24752304037676       -0.85744023013831
C           83.26543798080799       -1.07788230772588       -0.73240394758387
C           82.62904868107790       -0.03650357226081       -0.02775344180980
C           83.28231684767724        1.00056042692023        0.66759985360759
C           82.62067544632671        2.06607437388330        1.36317819450227
C           83.58779277030096        2.86434626819715        1.88391099835313
C           84.85168585064376        2.29407814200795        1.50913783305840
N           84.62918098086804        1.16272395327327        0.77074591233480
C           86.10021103280972        2.82144964432002        1.84679536000410
C           86.10923724561536        4.07216620001158        2.66179167400161
C           86.13162740658390        5.31779292229126        2.02700842960785
C           86.14963690830204        5.39291468866675        0.52333443862716
C           86.13478464516670        6.47609702597799        2.79409050960788
C           86.11625082277914        6.41280899327577        4.18456391777830
C           86.13092698068883        7.67999659187766        4.99659930194784
C           86.09632542074527        5.16926532346254        4.80558071085354
C           86.09189046088966        3.99739518482237        4.05678059679588
C           86.06638354235677        2.65360304129410        4.73538695993599
C           87.34025199530022        2.28691065351708        1.48802881831065
C           88.61905407749198        2.83867763948346        1.84866812151019
C           89.56807159173823        2.03232279638235        1.30989942964689
C           88.88090521064687        0.97951940012051        0.61350958361989
N           87.53405663017064        1.16179288344634        0.74076735066001
H           90.57972003054954       -0.06178705962177       -0.08762582413855
H           90.60467143822731       -2.25442947933453       -1.54762594335732
H           88.69861644407762       -3.83751731372192       -2.59263367788487
H           86.91308531840131       -2.15824367408364       -4.56182616128557
H           85.14919327846151       -2.15439685571035       -4.54400987420591
H           86.01566663465115       -2.83152758917149       -5.93446003633560
H           86.01269709971515       -5.17721971038168       -6.01649393464675
H           86.52586152022010       -8.55588970431809       -4.64067446688856
H           84.96092922726911       -8.06649439609981       -5.29891223088196
H           86.44825999935192       -7.58267096857720       -6.12200564542369
H           86.03762382041621       -7.53038491057011       -2.44142571944233
H           85.17353112669980       -4.99532042782574       -0.24011489789323
H           86.06230482931596       -6.52706701050174       -0.31924660696482
H           86.93745186725680       -4.98676723932350       -0.25137968174147
H           83.40277641536150       -3.83565943231367       -2.54317903826022
H           81.51586085268663       -2.25331451342317       -1.47310210371862
H           81.55150826524975        2.18631389088577        1.43533317055041
H           83.46453554665214        3.76248360445886        2.46800119223128
H           87.03488501528376        4.88945647865610        0.12989381841752
H           86.15725516283332        6.42853985171197        0.18464139498377
H           85.27103018364276        4.89492041040276        0.10872347313953
H           86.15015577155521        7.44317192589694        2.30193610405824
H           85.40014826638118        8.39178771755417        4.60978803016081
H           85.90295726576535        7.47657073624519        6.04287500472412
H           87.11657615617283        8.14758930306785        4.94348227325088
H           86.08223705183467        5.10936775980562        5.88901466550606
H           86.93085627655046        2.05970159220172        4.43251386362102
H           85.16752884308357        2.10326987106762        4.45037000023585
H           86.07947257637400        2.76356013488574        5.81936647100818
H           88.76065654034775        3.72921476587063        2.44057206920525
H           90.64070068031869        2.13118304325398        1.37142919145713
C           58.12375159021889       -0.06872156762270       -0.00478033295777
C           59.33982461297832       -0.08249977115311       -0.00698287513524
C           69.05946220319210       -0.06690261468375       -0.01482276899277
C           70.27742738391733       -0.05775907044847       -0.01604237534635
C           80.00237959148932       -0.02666444319016       -0.01869492879194
C           81.21940208097593       -0.03126660580186       -0.02117054973784
Zn          64.19789445636748       -0.08964885805120       -0.00753894444315
C           60.75018970626625       -0.09227252460586       -0.00408858784453
C           61.39513065324117        0.18417671140239        1.21661235652079
C           60.72551535729843        0.45327346371689        2.45580561071197
C           61.68740314733130        0.61970797797315        3.40007803716713
C           62.95401894555424        0.45493663892520        2.74414971336107
N           62.74068213151582        0.19789596602059        1.41697243683142
C           64.19935451091978        0.52523508504533        3.37235886600194
C           64.19982665259701        0.76617917546427        4.84554351599067
C           64.26945649950095        2.07028341764073        5.34254778608651
C           64.34680685741763        3.23271793941224        4.38885027731197
C           64.26557221377227        2.27949853761467        6.71689465364688
C           64.19288878898305        1.20904021672843        7.60198207374613
C           64.20834638796039        1.44384438461948        9.08852230204564
C           64.12613642360621       -0.08542420954493        7.09635400128070
C           64.12829756499981       -0.31711109149015        5.72610485765908
C           64.05361833670570       -1.71994026534774        5.18448599737789
C           65.44332466807333        0.38142217333405        2.75459486357171
C           66.70920701035466        0.44492888185632        3.42821307747917
C           67.67041930665738        0.27662322742324        2.48377558742067
N           65.65786814708204        0.17141022195191        1.41839658866840
C           67.00309139913035        0.11229473935194        1.22583750307665
C           67.65091098514299       -0.07489059293312       -0.01305271776767
C           67.00054324105133       -0.26920137973632       -1.24938425908264
C           67.66466506982121       -0.42918360411368       -2.50946495468234
C           66.70160736803643       -0.60620072382154       -3.45037722970216
C           65.43755495622513       -0.55206937298704       -2.77254422307497
N           65.65498653760419       -0.33983693826135       -1.43717051509089
C           64.19281625674384       -0.70134394193648       -3.38770058770264
C           64.19246329702423       -0.93467287351577       -4.86215815249307
C           64.11175742854846        0.15324185841312       -5.73631098055639
C           64.02236422386814        1.55203761693052       -5.18647132654213
C           64.11456365643325       -0.07007128602609       -7.10793650310251
C           64.19536442214289       -1.36068946190227       -7.62132057794686
C           64.21942177683820       -1.58595994060182       -9.10923330805282
C           64.27484811531322       -2.43590156823499       -6.74259322742613
C           64.27375192607400       -2.23506972810573       -5.36695074434395
C           64.35916453074900       -3.40257463248207       -4.42015001837174
C           62.94869851428031       -0.63739992404301       -2.75674535010551
C           61.68082906216115       -0.80140116278620       -3.41048096263431
C           60.72088861104187       -0.63768647487574       -2.46377372469621
C           61.39308843906964       -0.37122951779431       -1.22528647967469
N           62.73810456292164       -0.38517945798520       -1.42817825956517
H           59.65539642217954        0.50154530237886        2.58125903783381
H           61.55865380404614        0.83539641153473        4.44882283316724
H           65.24553872388063        3.15740002897169        3.77351408355372
H           64.37126203536471        4.17909831536053        4.92830814716872
H           63.48393636124163        3.23223600250383        3.72008067913818
H           64.31797480807332        3.29250454716211        7.10246325286333
H           65.23203976486346        1.37860421844702        9.46468723316728
H           63.60976385970072        0.69337701117432        9.60574547598195
H           63.81993700886274        2.43332890084425        9.33052278736419
H           64.06972862882492       -0.92636370341252        7.77991720286466
H           63.15467508694425       -1.84353841511437        4.57729762890706
H           64.91645701617847       -1.92683039546008        4.54849563552031
H           64.03171923201789       -2.44978351838804        5.99322375958679
H           66.83846811804833        0.59603478967369        4.48810187985051
H           68.73900797472177        0.25655000630051        2.62334937604891
H           68.73250840230661       -0.40043938998886       -2.65296993508481
H           66.82846583111561       -0.75764917496576       -4.51049018883949
H           63.11857203418744        1.66448316746083       -4.58430590167036
H           63.99943301214937        2.28671535879956       -5.99080811278572
H           64.87939583053097        1.76204856425697       -4.54370014624835
H           64.05182997115728        0.77447971495345       -7.78649159741505
H           63.83885558249190       -2.57644544270726       -9.35948244745747
H           65.24457961585763       -1.51162692395654       -9.47972730321855
H           63.61858590514981       -0.83613127043431       -9.62475510995150
H           64.33729719713762       -3.44601966046029       -7.13421989319306
H           64.38350559339460       -4.34586815145975       -4.96500851725043
H           63.49980112907248       -3.40813289016463       -3.74693248901308
H           65.26090422870521       -3.32822051125350       -3.80907136695551
H           61.54987986986696       -1.01365291660635       -4.45969110145546
H           59.65048660643613       -0.68655759355550       -2.58686888770430
Zn          75.14066038383054       -0.03518934351664       -0.02097756325096
C           71.68596053616251       -0.05062053346698       -0.01771446363305
C           72.33343202344156        0.55481645228460        1.07939264403205
C           71.66530853583633        1.18545591875731        2.17959837834984
C           72.62634540461241        1.63932327617798        3.02496378884136
C           73.89285079194680        1.29354384779129        2.44491756510501
N           73.67894973431362        0.63830730954866        1.26150694999529
C           75.13714492753193        1.58300518253224        3.00878853292296
C           75.13418249302354        2.29404738513410        4.32151973245558
C           75.17002687094192        3.69058662487714        4.35706021028872
C           75.21348118019650        4.47267999258560        3.07121526832032
C           75.16380174604609        4.34419790841016        5.58408396531098
C           75.12177817971141        3.62702890576612        6.77484175973950
C           75.13447974274969        4.34130420479864        8.09961825992067
C           75.08782678114956        2.23669149987861        6.72802069002283
C           75.09312908497382        1.56321965537440        5.51239862787323
C           75.05447003905212        0.05874088995110        5.46783348663572
C           76.38352783365778        1.27501919395539        2.45952388445169
C           77.64922331093999        1.57242522775728        3.06820756682997
C           78.61230451444298        1.12282233479502        2.22271732460008
N           76.59915631575466        0.65185784406327        1.25981777238652
C           77.94503744514130        0.55110675131345        1.08977563286495
C           78.59315043987010       -0.02813997617408       -0.01947351363530
C           77.94819598914100       -0.60562194117133       -1.13156563030309
C           78.61828584492454       -1.16294890713108       -2.26993333289494
C           77.65746376308108       -1.60531985992805       -3.12178050055321
C           76.39031182393195       -1.32012823030373       -2.51049239804543
N           76.60280703557902       -0.71039374801894       -1.30325867086570
C           75.14561959936744       -1.62598348490809       -3.06475586044549
C           75.14648320857491       -2.30492713840213       -4.39438254218850
C           75.09692569834466       -1.54260197036498       -5.56510102883336
C           75.04363505334904       -0.04030411570253       -5.48040218421165
C           75.09634283401914       -2.18292289789268       -6.79846092600156
C           75.14352446997816       -3.57103025644141       -6.88294130409068
C           75.16147159520253       -4.24875765042813       -8.22668444798107
C           75.19349343650887       -4.31971619173268       -5.71201492866263
C           75.19482017027370       -3.69953166869948       -4.46772559157988
C           75.24550623501067       -4.51541930495439       -3.20336645511086
C           73.89990584094022       -1.35567759170442       -2.49472258281574
C           72.63551191686396       -1.70807216250640       -3.07533654725587
C           71.67222730900939       -1.27393364956461       -2.22222877468678
C           72.33673251094348       -0.64646276076293       -1.11806116223996
N           73.68256860255288       -0.71536172375634       -1.30383263669620
H           70.59625302059533        1.27483559234347        2.28401143411655
H           72.49633335857268        2.16530561094736        3.95734415666763
H           76.10753515752566        4.21317198639057        2.50082677883308
H           75.22273236525606        5.54458958881370        3.26672093578968
H           74.34427987487898        4.23621685814264        2.45443035115682
H           75.19015357962779        5.42874735755269        5.61066555084006
H           76.15335186102948        4.37888119219093        8.49222787216209
H           74.51165013403279        3.81936920567211        8.82689441565239
H           74.77226743484368        5.36414546920572        7.99448424289201
H           75.05502681801731        1.66950459367595        7.65263912473340
H           74.16130736973567       -0.28126546641476        4.93991707875477
H           75.92475832530141       -0.32667037698896        4.93316480062419
H           75.04707748768399       -0.36123849387810        6.47325616684634
H           77.77681534678663        2.05937729467692        4.02192605222465
H           79.68192720045873        1.16711270069745        2.35189309571431
H           79.68803931834576       -1.20150447239191       -2.39937319006311
H           77.78759411350102       -2.08028853050785       -4.08116482175171
H           74.14564890762794        0.27684494393342       -4.94650189668355
H           75.03492219562439        0.40625995910337       -6.47427721847398
H           75.90853485170068        0.33919611491085       -4.93294431428972
H           75.05688569723686       -1.59117915739309       -7.70728112647185
H           74.80281482470461       -5.27537943588349       -8.15034150880444
H           76.18122646991417       -4.27192297289094       -8.61811665974340
H           74.53816140389357       -3.70931254113892       -8.94063555720389
H           75.23000574562931       -5.40283197765327       -5.76802934806468
H           75.26265907640288       -5.58160108861525       -3.42749117579879
H           74.37498683016834       -4.30205714792342       -2.58003944571216
H           76.13798013929620       -4.26446292312241       -2.62675544519648
H           72.50834918510500       -2.22568277915692       -4.01278875824725
H           70.60390967257543       -1.37368398121813       -2.32443960528802
