195
 energy: -396.557641496111 gnorm: 0.000566139201 xtb: 6.5.1 (b24c23e)
Co          36.67628441199988        0.07529069636369        0.02974907961486
C           33.31256659255842        0.19852212524659        0.06003148362342
C           33.95951138667817       -0.35733090874965        1.14361237818089
C           33.29495449101051       -0.92876923807289        2.27536623622033
C           34.24925053517604       -1.17473713568138        3.20387310826543
C           35.49461161637762       -0.73469931856856        2.64500716023976
N           35.31462898768979       -0.30753024047214        1.35433386513794
C           36.68165907083688       -0.62033411115794        3.35696326455865
C           36.69139436810257       -0.93804593925969        4.80225965857831
C           35.85785281173089       -0.24650046151223        5.68496685771595
C           35.86747405944738       -0.54192122836691        7.03822187187799
C           36.71396136438270       -1.53868741258253        7.49554814729547
S           36.73655308510879       -1.91417753614053        9.20819175455409
O           36.24225246017866       -0.81215974338687        9.97993691289165
O           35.60325645428291       -3.07718941391207        9.20745409040348
O           37.98825912065088       -2.50392448244832        9.58078843949746
C           37.55387220234957       -2.23990393980022        6.64562862416834
C           37.54020867333161       -1.93270537064403        5.29525955117846
C           37.86068286419280       -0.20796687558141        2.75121599261051
C           39.09404377558251        0.01764455242164        3.44301512483282
C           40.04290023006713        0.21479891806386        2.49565274511144
N           38.04275428110643       -0.07504374174179        1.39517218846575
C           39.38749487009962        0.11354383525587        1.23002593627982
C           40.05881128364942        0.00971240336483        0.01024624897524
C           39.37161970432164       -0.08610005129734       -1.20159559103179
C           40.00781845726875       -0.23695419793374       -2.47192041187037
C           39.05272131241736       -0.03758885893516       -3.41260357138076
C           37.83673378424506        0.24765088512744       -2.71186980199098
N           38.03165031390260        0.14006024622192       -1.35488332619330
C           36.67042334311030        0.70245106175711       -3.31109584252339
C           36.66854774162355        0.98089758511986       -4.76453531207276
C           35.77545426558846        0.31680888986533       -5.60927831232565
C           35.76730219734506        0.57846606410652       -6.96944035517549
C           36.65788617551814        1.51287596259595       -7.47235897383699
S           36.64009290758779        1.86259201779790       -9.19073189554079
O           37.17021989305558        3.16817967927409       -9.45466761212055
O           37.74628446246390        0.77323154619808       -9.66631927174580
O           35.37516371820042        1.50814671120892       -9.76200276225943
C           37.55167403072145        2.19119803820948       -6.65960862631557
C           37.55528047787445        1.91778031995737       -5.30187448000847
C           35.50633667863576        0.91076819222538       -2.58207811499754
C           34.28695381727960        1.43308696721958       -3.12722417500905
C           33.33817931369086        1.29042569056731       -2.17198247362479
C           33.97993561132317        0.69177804067892       -1.04092464401003
N           35.32200919276745        0.52827223747643       -1.27861046424253
H           32.23012128646909        0.24333306069388        0.07130966756197
H           32.23298883263825       -1.10562511415440        2.33515634272508
H           34.13336074138856       -1.60869692380195        4.18377324849034
H           35.21302535317724        0.53921115927888        5.30906363291462
H           35.23404293646256       -0.00460105159469        7.73280145037969
H           35.43111056296969       -3.37759014226398       10.10819922845691
H           38.20720887223489       -3.00889842562732        7.03825725827483
H           38.18141416745966       -2.47664440965815        4.61149667624066
H           39.20837701687595        0.02210339782897        4.51475230488293
H           41.09726047222394        0.39712350968087        2.62719930273129
H           41.05431066388494       -0.45563743329572       -2.61101706603639
H           39.15265904253141       -0.07375746705252       -4.48519228769313
H           35.09404285771981       -0.41827901934483       -5.19722872172504
H           35.07887812919460        0.07035820171960       -7.63293370797903
H           37.99201948665640        0.92714851843837      -10.58675379080568
H           38.22517635886924        2.92485463275240       -7.08454353234451
H           38.23695643603338        2.44741466879118       -4.64663707140518
H           34.18380027204956        1.84998823050837       -4.11589002202389
H           32.29279087120823        1.55114324648853       -2.21395938766647
Co          58.26838642414676        0.06249123625032       -0.01531286605435
C           61.63389039484433        0.16945225039737       -0.00361169374028
C           60.98410612407756        0.05502467565487       -1.21399376625697
C           61.64762199338651       -0.06403308235048       -2.47677274544052
C           60.69351769930978        0.04930022893305       -3.43037530733743
C           59.44838163328053        0.25650680874799       -2.74931709298079
N           59.62906917556472        0.18294697070729       -1.39117997466314
C           58.26114567028862        0.61591774732214       -3.37196373674746
C           58.24876041969463        0.83814680654069       -4.83510517477917
C           59.07795688509813        1.80280457912272       -5.41304417475338
C           59.06394337606213        2.01313261833683       -6.78212920983692
C           58.21675109566917        1.24542831967737       -7.56452958422249
S           58.18517146466017        1.51172111598423       -9.29716012176206
O           58.68053145616479        2.81663122201912       -9.62328764984994
O           59.31245605693405        0.42285832553853       -9.72268161707785
O           56.92932087066781        1.09877716764017       -9.85058077257733
C           57.38145749295571        0.28297110106043       -7.02079246809092
C           57.40039998987243        0.08406417047937       -5.65043886424235
C           57.08134881407256        0.77646762193264       -2.65782306958634
C           55.84575640896164        1.22862190584583       -3.22404377854364
C           54.89699954951667        1.07143171882947       -2.26974911780976
N           56.90194442026119        0.41770958235553       -1.34366172252497
C           55.55468736025417        0.52871184426983       -1.12268466506264
C           54.88650155316043        0.00750237468312       -0.01778290527819
C           55.56874400642997       -0.50307489120568        1.08370403932553
C           54.92822053159596       -1.08542318543424        2.22077358084677
C           55.88306351748113       -1.23714409796657        3.17005735035044
C           57.10366135420228       -0.73548992801971        2.61304281961332
N           56.91213136512184       -0.35665197319590        1.30589074362809
C           58.27430575699653       -0.53921981624675        3.33285237101878
C           58.27557497672940       -0.79660672782405        4.79033929400485
C           59.15756735867033       -1.72950392086973        5.34185280324051
C           59.16491488586165       -1.96964915781809        6.70594791970543
C           58.28393951662898       -1.26493904874084        7.51004786168325
S           58.29834728191486       -1.55367775422233        9.23957040386331
O           57.76752896154731       -0.42918438492129        9.95315866177818
O           57.19155494938307       -2.74095470025144        9.29035099873155
O           59.56177672124232       -2.09056117660274        9.64933506008925
C           57.40121180104913       -0.33023974254496        6.99370179688762
C           57.39915293415729       -0.10134203936142        5.62773821143786
C           59.44200180233449       -0.10155994300799        2.72299050705501
C           60.66724546638801        0.17336945352342        3.41618320851086
C           61.61594342399191        0.37249316481690        2.47148745726670
C           60.96914700749952        0.23140710812160        1.20213831534916
N           59.62438963300376        0.00993954554228        1.36800751471372
H           62.71662631065334        0.20668685832983        0.00051680852352
H           62.70923715739372       -0.20928190642757       -2.59735539156705
H           60.80911585103664        0.00385604020480       -4.50113809793450
H           59.72292768770600        2.40302720893155       -4.78199791246326
H           59.69411322628425        2.76576697236766       -7.23910919256894
H           59.46891013139729        0.45798498748980      -10.67422970417395
H           56.72756737826212       -0.29521463723130       -7.66148171161485
H           56.76292311042079       -0.67137077580330       -5.20601798222278
H           55.73062644905778        1.61470812743356       -4.22375175612606
H           53.84179485601074        1.28537315019428       -2.32550836073910
H           53.87951545985448       -1.33024730789637        2.27284057839741
H           55.78101553722293       -1.64747020090179        4.16152603995489
H           59.83087728257803       -2.27844264240001        4.69393118265315
H           59.84494741223455       -2.68941858767683        7.14393573396822
H           56.94632222851619       -2.93101491601366       10.20406772761589
H           56.73512831191653        0.21198040069312        7.65305578246424
H           56.72630540343118        0.63584632499818        5.20535834194081
H           60.77368295608377        0.20456531809640        4.48838388152283
H           62.66456028712620        0.58702312663449        2.60180702605667
C           41.46595883652667       -0.00363358847056        0.00247401976791
C           42.68236939246311       -0.01271972375665       -0.00485741677332
C           52.25801568074441       -0.01381947453776       -0.01881514044235
C           53.47236698970008       -0.00671661713097       -0.01679765507701
Co          47.46797094113428       -0.03375739777863        0.01749575728324
C           44.08890978460302       -0.01466099692351       -0.00963727173244
C           44.77276202361069        0.81731065735083        0.88112920974282
C           44.13870531956235        1.66862998278882        1.83721345072180
C           45.09283155403730        2.51316779879124        2.30115751441593
C           46.30637883684732        2.17923613423919        1.61884017083877
N           46.11021328300200        1.08953338301013        0.80493606258061
C           47.47033525658195        2.93641626381042        1.64992418600934
C           47.46781026332665        4.22695122685370        2.37288123249732
C           48.37227584585111        4.45685943865199        3.41286714292819
C           48.37112118478864        5.66458861426291        4.09099207981058
C           47.46023344913475        6.63823176797745        3.71456102473281
S           47.46621487313194        8.17605681746065        4.55758665645633
O           46.86652721288404        9.20142275133945        3.75538454353604
O           46.42690939594948        7.79672407073660        5.74561539546657
O           48.75057129879639        8.42600405830326        5.14087030466101
C           46.55512285095894        6.44190023569649        2.68431108557048
C           46.56060225306008        5.22842647047979        2.01677024319315
C           48.63465884304141        2.51460426325814        1.02012413405427
C           49.85343173407016        3.26514209173917        0.96572294237697
C           50.80693119357007        2.42800190486375        0.48914362832738
N           48.82369938205094        1.25979174955559        0.49354701587507
C           50.16653965393061        1.17410912637486        0.24279958937984
C           50.84491029220911       -0.01506541294706       -0.02047688791510
C           50.16590476687108       -1.20350625489091       -0.28716007618450
C           50.80231531260710       -2.45889333694351       -0.53446939078458
C           49.84749419115615       -3.29058520677762       -1.01929809479392
C           48.63176585420648       -2.53575328221141       -1.07548533073493
N           48.82608205962343       -1.28016799227418       -0.55493838303595
C           47.46523443620463       -2.95106977605278       -1.70674205630734
C           47.46183921324423       -4.23714041802445       -2.43765089483371
C           48.36623830776132       -4.45938455398992       -3.47945211302825
C           48.36706100178282       -5.66298455074063       -4.16480118976624
C           47.45825967663033       -6.64063885080050       -3.79363679880320
S           47.46702831943804       -8.17335575507368       -4.64565760948561
O           46.86662411507528       -9.20392102801767       -3.85070366524798
O           46.43047968929968       -7.78760243580661       -5.83442262284197
O           48.75247664891494       -8.41966384308986       -5.22837407923230
C           46.55371845593744       -6.45228926874492       -2.76137708288659
C           46.55730744365449       -5.24280367065805       -2.08655303986582
C           46.30147251843629       -2.19473600664472       -1.66446045133871
C           45.08249146254510       -2.53127755085662       -2.33642778639593
C           44.12887130346773       -1.69552110164274       -1.85685187413805
C           44.76904472138120       -0.84393857451363       -0.90477801114838
N           46.11078607827092       -1.10186724713084       -0.85194467975285
H           43.09401155317614        1.62535806797437        2.09975740726290
H           44.99325855593825        3.29493139431282        3.03647228460752
H           49.06878526264872        3.67769683239355        3.69967143415330
H           49.06749094506650        5.85375015330256        4.89823950648712
H           46.21739747007666        8.57975950466510        6.26948406417502
H           45.86523668478953        7.22937981285567        2.40805908252126
H           45.86979746162118        5.05914707142744        1.19907963556001
H           49.95663996817962        4.29637520209747        1.26163103724664
H           51.85473377262109        2.62221875020655        0.32595120585200
H           51.84823662108590       -2.65850217286379       -0.36558173281868
H           49.94749582548299       -4.32169385097585       -1.31693029201451
H           49.06143002869533       -3.67736785373157       -3.76160110849900
H           49.06339427567028       -5.84608383637531       -4.97347907584728
H           46.23169033654703       -8.56571421234938       -6.36966877054956
H           45.86586021382347       -7.24289124364723       -2.48900287390859
H           45.86722326008643       -5.08031509851059       -1.26686945895105
H           44.97877238884742       -3.31153032506794       -3.07275442630572
H           43.08059679925951       -1.65731982152580       -2.10576976730860
