142
 energy: -228.484742281974 gnorm: 0.000317972955 xtb: 6.5.1 (b24c23e)
Cu          14.20466751759719        0.03433387232673       -0.02423846026472
C           10.82259650721963        0.21508585287544       -0.39295753256563
C           11.47125067617034        1.37623432827449        0.00030593009347
C           10.81479030154822        2.61755159289582        0.29549230001771
C           11.77996570114403        3.49839024932671        0.65851844246411
C           13.03744494447630        2.80601038072269        0.57686445013503
N           12.81741533227953        1.51719153104992        0.18345176956156
C           14.28301201417185        3.36439615886511        0.87421789372970
C           15.49946141967608        2.68090796098853        0.82694894083428
C           16.78432229247442        3.27318475048276        1.07100527855491
C           17.71181844650019        2.29649602836270        0.90416959659629
N           15.66640307900806        1.35881998510229        0.50888502556127
C           17.00239097251961        1.10284231348640        0.55332303239042
C           17.61611019684144       -0.13301788126363        0.28408948626253
C           16.94005899050289       -1.31293156559807       -0.07252296584995
C           17.58558896172203       -2.56377335012523       -0.33786477059224
C           16.61040865075258       -3.45212181935050       -0.65661977757643
C           15.36066009775205       -2.74918866521109       -0.58632320080804
C           14.11521575967709       -3.30639997137252       -0.87938808243306
C           14.07806326497609       -4.74803423653880       -1.23721191429858
C           13.68609116378763       -5.14685257359381       -2.51297722748715
C           13.65540070435523       -6.49613384593588       -2.85326000932651
C           13.22040896809626       -6.91616592548398       -4.23141231937102
C           14.01210534914350       -7.44670054210327       -1.90309914747544
C           14.40220302404755       -7.06353807830210       -0.62216235365301
C           14.79769508742574       -8.10574284804489        0.38884383877153
C           14.43726535580770       -5.71292283355996       -0.29640303231729
C           12.90302820986351       -2.61334124962027       -0.86681126812347
C           11.61702772925495       -3.19136986039851       -1.14789588278305
C           10.69809665621646       -2.20249379630277       -1.01760087289613
C           11.41227181408272       -1.01440732197998       -0.64616072993568
N           12.74662734705254       -1.29214301371995       -0.56035410942920
N           15.59519207335171       -1.44721079703028       -0.23034117475427
C           14.31547500780956        4.79724104583343        1.26322327714903
C           13.89421437441544        5.77849016606508        0.36648739874447
C           13.91981219828589        7.12167718095945        0.72515331319169
C           13.48602836020045        8.17969980508941       -0.25333418600484
C           14.37024580651784        7.48080587342777        1.99227362052456
C           14.79417957538612        6.51362113034612        2.89835254406039
C           15.25705946785826        6.91126007329463        4.27406389032693
C           14.76522738951150        5.17316492130683        2.52796565470789
H            9.74411325144621        0.27086560557963       -0.50011863176295
H            9.74971926632550        2.77832987322737        0.23669446272691
H           11.65702837123753        4.52431087408372        0.96643014663388
H           16.95229280277733        4.30786991270155        1.32264843954270
H           18.78313730125424        2.36927550520483        1.00312730508854
H           18.64972643445659       -2.73039178313872       -0.28666287695365
H           16.72309872692763       -4.48921692238843       -0.92845030709654
H           13.42044637713006       -4.39594222279103       -3.24900852587023
H           13.59033422363210       -7.91327204183625       -4.47023600094346
H           12.12962740682543       -6.93363494245430       -4.28760748875388
H           13.58559239975919       -6.21474913755383       -4.98224321757937
H           13.98731625565695       -8.50037893889362       -2.16167369774105
H           14.81100284081576       -7.68802581987825        1.39541691675722
H           14.10410960406186       -8.94717748998303        0.36552494573432
H           15.79613806421107       -8.48559321403163        0.16142176443021
H           14.73053326626530       -5.40118906964663        0.70007381239141
H           11.44625640021035       -4.22509003853340       -1.40247968218080
H            9.62917530383549       -2.26013381835583       -1.15102466913252
H           13.55924547720014        5.48749986173637       -0.62317208521068
H           12.99423311422636        9.00521968073504        0.26207578174616
H           12.80085862116285        7.76750874925396       -0.99421993607948
H           14.35650167102446        8.57920520154227       -0.77873645370389
H           14.39109894699280        8.52791845965397        2.27658519250740
H           14.40570294453973        6.94078152700936        4.95802774173141
H           15.71389098296333        7.90106949509981        4.25885177907186
H           15.98008211842284        6.19412498725027        4.66317822587558
H           15.07954353647305        4.40936227681615        3.23089228268167
Cu          30.19718656572478        0.01031958154805       -0.03726728684219
C           33.57850093782456        0.31999009219033       -0.31656276882599
C           32.93029141024591       -0.38397319805561       -1.32055876148161
C           33.58705379837284       -1.01419325763577       -2.42980730770554
C           32.62221980338840       -1.60987715186412       -3.17378848996809
C           31.36460255148392       -1.33859914647984       -2.53182983101175
N           31.58429684438207       -0.60050152763521       -1.40434109749403
C           30.11910221788266       -1.77979682103590       -2.98545406150914
C           28.90256910867845       -1.54412341507041       -2.34219714850763
C           27.61759215027947       -1.94228470216362       -2.84376295959517
C           26.69014545772187       -1.51079860462687       -1.95177072078003
N           28.73570559135589       -0.87183575070920       -1.16020602559344
C           27.39969279650391       -0.84310456647405       -0.90206593591409
C           26.78606851417644       -0.24225145380263        0.21099296636386
C           27.46227676433084        0.42682461003415        1.24611693254680
C           26.81719355250126        1.02600831904302        2.37598586342540
C           27.79236469922109        1.57992554290703        3.14015415518969
C           29.04157074201956        1.32125113555110        2.48177807018269
C           30.28638015270730        1.76186148752708        2.93302930096111
C           30.32294428408779        2.50784867151346        4.21765141641856
C           30.70211179809873        3.84786399909172        4.24269559636589
C           30.73065740276504        4.55172932830973        5.44311022283841
C           31.15063537736867        5.99684968088268        5.45997137345008
C           30.38574978416431        3.90121251165891        6.62267710214863
C           30.00910502260573        2.56044942077324        6.61409148934653
C           29.62609718984738        1.87660062032743        7.89883670960064
C           29.97515046575919        1.87033619259415        5.40818993474987
C           31.49800435869254        1.56093459980221        2.26875551471304
C           32.78317670942130        1.99740509651360        2.74276378618122
C           33.70209094118277        1.59824044161726        1.82866218545471
C           32.98866963175114        0.90628354017997        0.79333507955270
N           31.65477044345420        0.89744687294101        1.08590034781018
N           28.80687902411917        0.61819970982652        1.32961725495773
C           30.08615182810641       -2.55135008890926       -4.25388187033534
C           30.50909138081905       -1.96302405113555       -5.44528364434986
C           30.48145921992034       -2.67991140545778       -6.63641907358511
C           30.91657215588841       -2.03400942656846       -7.92424929457426
C           30.02730006198713       -3.99561863331092       -6.63022797017741
C           29.60187420276265       -4.59694574902298       -5.44970106837438
C           29.13462238919389       -6.02755391452102       -5.45067157331169
C           29.63298029256153       -3.86961350331830       -4.26446635762755
H           34.65672401071505        0.40944074982644       -0.40118792998935
H           34.65209592262414       -1.00195482381909       -2.60074867861574
H           32.74549346430027       -2.19253274036924       -4.07254024137801
H           27.44940528433974       -2.47075626348090       -3.76817290315122
H           25.61879112041708       -1.62565783738555       -1.99440380209710
H           25.75335807239490        1.02030833850754        2.55202121087507
H           27.68011369268610        2.12712816654743        4.06218049369607
H           30.95949811244729        4.34729625441006        3.31498212403598
H           30.77308436289736        6.50234676518327        6.34884221506278
H           32.24075594293746        6.06713916469002        5.46385552130495
H           30.78225375145431        6.51648776510729        4.57490252222326
H           30.40909610010598        4.44399243905080        7.56212242029293
H           29.62682637643262        0.79322053910969        7.77973342235440
H           30.31838610541275        2.14378376953405        8.69820876955902
H           28.62419022884368        2.18798038550712        8.20251715291630
H           29.69118518496453        0.82380230189625        5.38812278143330
H           32.95326665160819        2.53246937105048        3.66328322279313
H           34.77053210666768        1.74622271963053        1.84492371240772
H           30.84668577506124       -0.93233979480498       -5.44016482130272
H           31.40340181027909       -2.75991632992438       -8.57619305005460
H           31.60641547271602       -1.21173593627122       -7.73383248516803
H           30.04729813574014       -1.63469806835340       -8.45179091556981
H           30.00454028566763       -4.55892466566219       -7.55752528742322
H           29.98475351804264       -6.69584886102511       -5.29530822655287
H           28.67198217163207       -6.28399703006542       -6.40402212040838
H           28.41522447002709       -6.20197882467243       -4.65037076801673
H           29.31742814593050       -4.33240507155959       -3.33573381016926
C           22.81471320526452       -0.29961727083814        0.37210521095358
C           21.58729351946474       -0.27409374822709        0.38972862960849
C           20.24232695729327       -0.23551342925216        0.38169364466435
C           19.02012662732059       -0.18923517826330        0.35356965731360
C           24.15975656800574       -0.30382079906249        0.33561758685866
C           25.38198272337987       -0.29223774016326        0.28369779738783
