312
 energy: -488.052162276370 gnorm: 0.000974428349 xtb: 6.5.1 (b24c23e)
Fe          45.65276422018707        0.03172121265404       -0.05373784230713
C           42.25637823005436        0.13338029937254       -0.20559583827962
C           42.91617398657488        1.25417411750444        0.25468826850527
C           42.24994053747938        2.44864889902479        0.68040807920756
C           43.20970537864516        3.28514614000726        1.14117477614478
C           44.46133101179345        2.60144186361623        0.98993556238811
N           44.27085214437165        1.36794933382817        0.42862666309075
C           45.67913438339806        3.12963034247702        1.39715240520108
C           45.68718615250440        4.47287783697150        2.04181546465472
C           45.84476276053261        5.62013205882499        1.25835361993561
C           46.01146370995118        5.49455467971088       -0.23248909260432
C           45.84531482672215        6.86821192067770        1.86900436537120
C           45.69086349699667        6.99050265174073        3.24660421375285
C           45.71002114215887        8.34965724972671        3.89240514815207
C           45.53719406562605        5.84227356445420        4.01568410985044
C           45.53306850647942        4.58307379705387        3.42625302445097
C           45.36431901251222        3.34353827257971        4.26371575092920
C           46.88621566742869        2.47385173922002        1.22048388586949
C           48.14862486905493        3.01753205595128        1.62421849715508
C           49.09852525056664        2.14284824808522        1.21431886361023
N           47.06484827941574        1.26580606438488        0.58872833341588
C           48.41339113092526        1.06714122436792        0.56717245410554
C           49.07390556620987       -0.00486526186837       -0.04529443500911
C           48.39428949923563       -1.07496217543892       -0.63933163660419
C           49.06093442776276       -2.19462285326160       -1.22879015100629
C           48.09598410954876       -3.07174788293510       -1.59610034525240
C           46.84215136817232       -2.47890329653325       -1.23756066005720
N           47.04147533808587       -1.24336314599066       -0.66864664397512
C           45.61925537560254       -3.10163320788561       -1.42572576883253
C           45.60189979543291       -4.47778245439640       -1.99658866424469
C           45.50297197974656       -4.66012270777787       -3.37945765577815
C           45.41901174207248       -3.46458663677540       -4.29046807734841
C           45.48403900010083       -5.94898386859939       -3.89754259765326
C           45.56226183624472       -7.05808651101811       -3.05995310940313
C           45.52578876200601       -8.44553983914439       -3.64168622936830
C           45.66045205548234       -6.86430341196186       -1.68694966937130
C           45.68142701747308       -5.58339605125153       -1.14604268449500
C           45.78978627387905       -5.38017963612308        0.34163351296250
C           44.40589128679061       -2.49941092359679       -1.12125903692190
C           43.13340335079404       -3.12201978253122       -1.34523301052054
C           42.18907554189595       -2.20761416989535       -1.02052259810326
C           42.88605373609430       -1.03288972772249       -0.58941482638086
N           44.24122708935123       -1.22781541142848       -0.64252274349110
H           41.17375304943974        0.16563502300961       -0.25419821925135
H           41.18366381269192        2.60358438260580        0.63283155634075
H           43.09947787116418        4.27609852863071        1.55150763891009
H           45.15916057581077        4.96895342632215       -0.66691487920082
H           46.91064890517244        4.92098613116673       -0.46550785751226
H           46.09263126930161        6.47573923619246       -0.69918304939818
H           45.96577742340078        7.75937663262724        1.26178840929843
H           45.24046495760611        8.32115694741539        4.87571025309450
H           46.74112302536661        8.68887445328814        4.01553813789180
H           45.18708557746616        9.07902098805373        3.27275556009369
H           45.41634378126707        5.92766053995013        5.09064020469524
H           46.22299522483637        2.68136691080298        4.13770173153547
H           45.26944814665460        3.59641261413770        5.31929559073651
H           44.47257853148091        2.79546596701467        3.95351581937506
H           48.27453658274946        3.95148604709546        2.14772834946285
H           50.16859580734710        2.20641416610499        1.32975902085542
H           50.13031278508443       -2.28667571875900       -1.33055486532431
H           48.20608911390315       -4.03568558144391       -2.06611908981431
H           44.53491000621045       -2.86951193935890       -4.05377948469810
H           45.36312621453961       -3.77326359653790       -5.33392093046076
H           46.29494636984445       -2.82637668487204       -4.16010164096595
H           45.40778812632886       -6.09227364406312       -4.97043578683005
H           46.20637453380320       -8.52365144741048       -4.49069753870908
H           45.80698056573992       -9.18953743901966       -2.89648569776861
H           44.51864947055235       -8.67630077892975       -3.99564438149764
H           45.72233982075929       -7.72239431638291       -1.02572175270092
H           44.94659807218014       -4.79104126197711        0.70682865915706
H           46.70536691273077       -4.83686800219981        0.58338234310681
H           45.80246016780179       -6.33552213268955        0.86527500602891
H           43.00005179595979       -4.12742221396907       -1.71112269754855
H           41.11533912928419       -2.30078319129385       -1.06094841244863
Fe          93.69064563168369       -0.00763560177598       -0.08688686011144
C           97.08681502173373        0.01827196375502       -0.24762833843865
C           96.43127298801792       -1.14640265321792       -0.59137458771659
C           97.10010811681813       -2.35175357556173       -0.98048975905502
C           96.13456779594365       -3.24696756275323       -1.29663055161656
C           94.87744241265123       -2.58237794795563       -1.10957459684230
N           95.07195853844527       -1.30568141589901       -0.65635437560167
C           93.65209675130220       -3.14949732062729       -1.43325616061444
C           93.63744954457687       -4.53101664046601       -1.99082648100680
C           93.78525741161467       -4.73204918147338       -3.36611031224608
C           93.95153636089995       -3.55092052213103       -4.28457410141248
C           93.77720733812616       -6.02699624324186       -3.87121443660054
C           93.62641301024239       -7.12252487997772       -3.02738750345339
C           93.60265540130793       -8.51917823587697       -3.58727815432887
C           93.47772308620534       -6.90991487801226       -1.66060805646372
C           93.48174909074213       -5.62399252950691       -1.13338917294399
C           93.32188029875478       -5.40055396999543        0.34673533207068
C           92.44580371259701       -2.48791504261362       -1.27183035843676
C           91.17993255876745       -3.04425099963474       -1.64603673119412
C           90.23506878215198       -2.14604373681256       -1.27711850531517
N           92.27439497001969       -1.24950775467406       -0.69997057703972
C           90.92583782126728       -1.04899788676587       -0.67298403661936
C           90.27095577086550        0.02594013712042       -0.05988003362755
C           90.95730673153736        1.07937986503590        0.55627864039060
C           90.30088809853218        2.16235069245076        1.22075541701783
C           91.27088515871803        3.02494368340296        1.60918739514783
C           92.51684078799508        2.46637759554512        1.17565889740414
N           92.30873406617448        1.25958081674180        0.55093782689088
C           93.73490743449371        3.11198051847685        1.31098672233216
C           93.75909598484563        4.46338191159653        1.93775658951430
C           93.56195036283738        5.60087818297658        1.14908511710446
C           93.31893901818948        5.45707883893890       -0.32960862749199
C           93.59155164753305        6.85647852161774        1.74352956213458
C           93.81243418452298        6.99562297225228        3.11043249003387
C           93.86150449130918        8.36437370319280        3.73395421378443
C           94.00612978397898        5.85696225831975        3.88484545779030
C           93.98194208285959        4.59065842076055        3.31145834536420
C           94.19013732236571        3.36158554078483        4.15543371657439
C           94.93627441395978        2.56309287513070        0.88265705289036
C           96.19984696351344        3.23257291858559        0.99293562968685
C           97.14059722343438        2.36679214326189        0.54703294864065
C           96.45086634082317        1.16935593012775        0.16975763665630
N           95.10005971306647        1.31202677214446        0.35258012547523
H           98.16991158729634        0.02501502193763       -0.29574977940625
H           98.17116476568792       -2.47664320239501       -1.00221361883677
H           96.24429072469216       -4.26500266973170       -1.63436587841789
H           94.85421557152750       -2.99413231807618       -4.02574913595025
H           93.10207616643875       -2.87236867234560       -4.18719717926874
H           94.02568790290269       -3.87249973883118       -5.32298758714844
H           93.89306042003510       -6.18351139885920       -4.93871971368749
H           94.00631139507279       -9.23251989659747       -2.86824722927842
H           92.57460579862649       -8.81122578560037       -3.81414144960260
H           94.18329071759513       -8.57893426068935       -4.50809104271940
H           93.35955257645411       -7.75875742881070       -0.99503235095434
H           92.41609646012998       -4.82464992046905        0.54625519160440
H           93.25630790782111       -6.34902618634261        0.87895955690128
H           94.16918324471266       -4.83543398928743        0.73931063667295
H           91.04856014533151       -4.00080113585328       -2.12562928962465
H           89.16440984265871       -2.21018388323083       -1.38663634036072
H           89.23455442667250        2.23928905566955        1.36036520520699
H           91.16876524242080        3.95960434637738        2.13662999466078
H           94.13708663028993        4.90649839094532       -0.79736434675004
H           93.23489640685082        6.43284980755345       -0.80706556046910
H           92.39713895712360        4.90013320504606       -0.50867454620045
H           93.43932531361317        7.74002203935231        1.13223914292300
H           93.12051932191616        9.02290066026345        3.27949311302379
H           93.67563283013801        8.31128231513381        4.80672629223200
H           94.84769260719521        8.80837501428801        3.57961062900321
H           94.17821515707021        5.95549386499481        4.95169214127972
H           95.06815556002682        2.81100534366056        3.81230478326470
H           93.32795194306260        2.69676629529545        4.07601840321731
H           94.33196902792287        3.62745490154856        5.20253844509993
H           96.33060405224248        4.23466468015322        1.36875944137049
H           98.20836534251301        2.50356146153138        0.48071856146946
C           54.27319320268441       -0.02716325632489       -0.05459230242537
C           53.04303480232721       -0.02367374921811       -0.05354816939403
C           51.70098795931682       -0.01858812085207       -0.05099250803132
C           50.47552667415424       -0.01459154640896       -0.04787736639966
C           55.61502150240656       -0.03139621842047       -0.05310396523441
C           56.84078176219300       -0.03523216411023       -0.05070818705477
C           70.28520363010408        0.00890549117463       -0.03469005505236
C           69.05355823083053        0.00855738010334       -0.02658724553766
C           67.71370610521392        0.00144104829244       -0.03058688593955
C           66.48671351013378       -0.00709860572078       -0.03564888937572
C           71.62509111753475        0.00996007513002       -0.02862911996434
C           72.85217408485347        0.00871228821426       -0.02578378616470
C           86.30156581692668        0.05264829792259       -0.03944863242200
C           85.07153328183536        0.04842403262601       -0.03534986654367
C           83.72951282507096        0.04242486761522       -0.03204702193609
C           82.50379421962596        0.03469390471546       -0.03189453015482
C           87.64381770173544        0.04669452331894       -0.04342580064596
C           88.86925674894977        0.03902308800831       -0.04872101452710
Fe          61.66466170364048       -0.04975407116771       -0.03832806004257
C           58.24122258452018       -0.03979984083702       -0.04727302944425
C           58.91258761683241        0.33351035931775        1.12452936932673
C           58.24253576717518        0.72497020418267        2.32499059957663
C           59.19910420898427        0.86061739338781        3.27613632769801
C           60.44881416757440        0.55411734214715        2.64829591051530
N           60.26031132036802        0.26661491846448        1.31943326533914
C           61.65552590369936        0.47715565949394        3.32996391266500
C           61.64432479809497        0.68758290755500        4.80439770217863
C           61.89882832661370        1.95694916060729        5.33150759021348
C           62.19187955786478        3.10931251307993        4.40826775230380
C           61.87459912816063        2.14057339787585        6.70895991076149
C           61.60145012913645        1.08022331732567        7.56714889456658
C           61.59513783828239        1.28857014358893        9.05737758628744
C           61.35325098050269       -0.17900212535133        7.03076181445849
C           61.37033463472186       -0.38617939675056        5.65655164239231
C           61.09556162997482       -1.75054705214672        5.08282429602658
C           62.86688427965218        0.21580452001504        2.70815520598964
C           64.11675438392444        0.13846233712787        3.40265956054607
C           65.07962634883611        0.00852601971113        2.45720271448862
N           63.06369327280485        0.09771932631605        1.35331310604864
C           64.41288363673972        0.00205471973171        1.19257591619124
C           65.08853257192605       -0.01948608304263       -0.03649810175560
C           64.41553377192288       -0.05957756681209       -1.26641393299867
C           65.08494287707714       -0.07120556423994       -2.52960746982516
C           64.12665527592490       -0.23372318045165       -3.47467762364077
C           62.87677898201085       -0.32197153252658       -2.78151895463947
N           63.06851545558835       -0.18051703215494       -1.42827082708626
C           61.66978784005472       -0.60450406368946       -3.40256146041595
C           61.66567797587005       -0.83605494622513       -4.87388978982812
C           61.40515019150072        0.22778080024722       -5.74265733299784
C           61.13623962129611        1.60168267391934       -5.18930075568361
C           61.39544806890198        0.00161729826209       -7.11382854385341
C           61.63798986137542       -1.26682714097134       -7.63102842928031
C           61.63974659811555       -1.49490495413225       -9.11836901942427
C           61.89780721860895       -2.31695894185630       -6.75649780005194
C           61.91438898854244       -2.11430305131610       -5.38150596151464
C           62.19366600104043       -3.25545011662556       -4.44026748315477
C           60.46055043318553       -0.67465755476588       -2.72477922815859
C           59.21283357304048       -0.98334078946405       -3.35556483267261
C           58.25115520635858       -0.82571982178190       -2.41295741220925
C           58.91653866222774       -0.42320258744179       -1.21364336062094
N           60.26559083413149       -0.36609022886856       -1.40148306910281
H           57.17711541160007        0.86302217123970        2.41544888051956
H           59.08355317982787        1.13718285923378        4.31161396840880
H           63.11258686530999        2.92292313807321        3.85192257699614
H           62.30509944344090        4.03726025857980        4.96787675807145
H           61.38403075497177        3.23160773071913        3.68457279798283
H           62.06863243067742        3.12640789538523        7.11865345516397
H           62.60026389996285        1.13747306564708        9.45798074962367
H           60.92545580146344        0.58043448265338        9.54590358904552
H           61.28015291866971        2.30220473869657        9.30639598898381
H           61.14003941858537       -1.01203951784262        7.69257737032028
H           60.19173996160293       -1.72814302634444        4.47080628741659
H           61.92225972724057       -2.06828354612558        4.44495547157673
H           60.96115255185443       -2.48607816095336        5.87532576149567
H           64.22732016724198        0.18650866027651        4.47392671313718
H           66.14679361125589       -0.07119677970895        2.58812837418907
H           66.15081162098210        0.02566918928723       -2.65977217344570
H           64.24054564916270       -0.29663983130586       -4.54482622558326
H           60.23271758283083        1.59214615413000       -4.57651477882465
H           61.00466466110515        2.32589874613437       -5.99258406618685
H           61.96462562127712        1.92543163570148       -4.55664117504878
H           61.19249048063978        0.82675966848674       -7.78861628575437
H           61.34252149837357       -2.51673926451635       -9.35518283869053
H           62.64328209151150       -1.33170497588627       -9.51818613524532
H           60.95974363024551       -0.80439235343308       -9.61781110031751
H           62.08762793803348       -3.30975542209597       -7.15107997305280
H           62.31378132566549       -4.19028084261414       -4.98683711579767
H           61.37550386913722       -3.36842243886409       -3.72667997545469
H           63.10650278689380       -3.06284224250241       -3.87319105188804
H           59.10195011041606       -1.27461013874698       -4.38752541198585
H           57.18537229620593       -0.95752051622330       -2.50823014557328
Fe          77.67718714382771       -0.00252413515691       -0.02557492142003
C           74.25053576330956        0.00436862765517       -0.02570924094978
C           74.92386992551002        0.03663916942145        1.20407739136453
C           74.25243523896582        0.05307957751113        2.46614732835587
C           75.21320049493218        0.17409231158076        3.41463292024891
C           76.46641440795649        0.23511356831529        2.72439942868790
N           76.27327952714749        0.12196473481912        1.36855788167379
C           77.67947505276307        0.46570021325268        3.35446164266012
C           77.68680264383407        0.65027246725585        4.83253891601838
C           77.51809390414739        1.92463621798764        5.38015638263610
C           77.32304369539004        3.11161660201681        4.47513229195492
C           77.53250013256614        2.08061025985518        6.76168951299229
C           77.71047432535939        0.98759086364771        7.60252395149420
C           77.74390246642002        1.16535990732143        9.09636521372245
C           77.87688188760445       -0.27670549851341        7.04511186473903
C           77.86709168089371       -0.45664031639639        5.66756481890821
C           78.04799543034676       -1.82630897802765        5.06983851283453
C           78.89063095205256        0.53308580597774        2.68011032900760
C           80.14124433665796        0.80493686444588        3.32187101360125
C           81.09940543610942        0.69178919065804        2.36963785015107
N           79.08087367050253        0.28108156870199        1.34427739206501
C           80.42948564752150        0.34682981574829        1.15491601950110
C           81.10307174301367        0.02151228790212       -0.02961744910889
C           80.43159796955140       -0.32386708937243       -1.20964372333960
C           81.10336670629081       -0.67600519248722       -2.42124043443844
C           80.14365935269677       -0.82661122926786       -3.36666775224121
C           78.89069504214288       -0.56463232586663       -2.72516136828715
N           79.08128779335203       -0.28638941217211       -1.39437801338833
C           77.67790696386984       -0.51919450351557       -3.39825036762601
C           77.68358121870628       -0.73765132462361       -4.87174125643618
C           77.87203287202499        0.34595924154326       -5.73505120993374
C           78.06104207108677        1.72986184990812       -5.17372976590711
C           77.88280763632794        0.12985285290406       -7.10742894779050
C           77.70900027947845       -1.14743282850249       -7.63204195044141
C           77.74508656631561       -1.36396890310521       -9.12069495283234
C           77.52121353245298       -2.21668266537188       -6.76336808548072
C           77.50602954857149       -2.02450239067271       -5.38643117728172
C           77.30184805576783       -3.18593604744223       -4.45073626585576
C           76.46541006272228       -0.27611256482156       -2.77153040011060
C           75.21307045508303       -0.21433811254602       -3.46301516463294
C           74.25352646682325       -0.06681397764410       -2.51701347522305
C           74.92446495111214       -0.03989958357465       -1.25483794147054
N           76.27314336766744       -0.14067129063666       -1.41775129126156
H           73.18395106921895       -0.01493688304159        2.59335331409053
H           75.09911087996889        0.22713993937820        4.48528130754731
H           78.17011566729438        3.21281720718749        3.79414362780836
H           77.22709288724384        4.03019073466637        5.05310542659088
H           76.42307619273446        2.98290963100273        3.87081824314877
H           77.40189682531400        3.07020932179863        7.18703760070338
H           78.77831465792838        1.16955105254147        9.44753135215693
H           77.22262404741724        0.34688842083888        9.59414021635135
H           77.28044539454839        2.10782908845797        9.38792713159823
H           78.01578143043569       -1.13494199010240        7.69433142143678
H           77.18741560944208       -2.08679690357292        4.45091644816953
H           78.93471188927091       -1.84733883118255        4.43341871174376
H           78.15939291085866       -2.57957698680881        5.84908579977076
H           80.25616426112465        1.04419282983454        4.36666257661167
H           82.16575675914181        0.81644620229570        2.46764914599716
H           82.17153271385234       -0.78266945921017       -2.52139280635521
H           80.25884626727139       -1.08411241763940       -4.40708135151424
H           77.20716270971070        2.00771836454539       -4.55317223626058
H           78.16626066896795        2.46290693223941       -5.97288476746565
H           78.95415190325372        1.76524599869617       -4.54696387642937
H           78.02870877356106        0.96975205450414       -7.77869127892323
H           77.29842642068674       -2.32183429957906       -9.38712233902447
H           78.77923122966439       -1.35848307574101       -9.47252581075048
H           77.20896855447944       -0.56829129294937       -9.63931318499512
H           77.38406469954728       -3.21609834335527       -7.16282410145711
H           77.20690844457424       -4.11967160727576       -5.00405594747644
H           76.39826035634817       -3.03837932953172       -3.85605180172351
H           78.14421008507045       -3.27068091903889       -3.76164966494733
H           75.09876658994637       -0.28285165577324       -4.53275540123151
H           73.18595315965386        0.01056728379136       -2.64571677096716
