248
 energy: -455.015280756508 gnorm: 0.000862645073 xtb: 6.5.1 (b24c23e)
Cu          46.77363251682950        0.03634342463385        0.01434500644106
C           43.36865197282227        0.06018924967504        0.11456567430338
C           44.00721956804245        1.27433531995208        0.31616845001227
C           43.33588505368630        2.52655820148710        0.51714862884818
C           44.29756905929380        3.46935054634392        0.67442009965045
C           45.56610731882073        2.79834386103309        0.58365958486432
N           45.35878065146816        1.46820217910925        0.35793669117229
C           46.81352620738473        3.41811133371399        0.69020791980402
C           46.83322765311373        4.87393315041233        0.97306618590052
C           46.28541801025286        5.37481999526150        2.15621519674785
C           46.30666477097729        6.73197742980397        2.42350774087840
C           46.87428764484136        7.61869756848750        1.50372938295894
C           46.89633352052390        9.01607392402341        1.77434990702534
N           46.91500084553387       10.14586253428677        1.99197091445317
C           47.42072487549552        7.12286499080415        0.31618831233599
C           47.40120174151445        5.76396037275559        0.05848730068193
C           48.04450390987310        2.77367987206354        0.55078720973168
C           49.32371843259686        3.39950739924695        0.73174689231264
C           50.26638921933147        2.44570759182782        0.52373728573876
N           48.22789823150154        1.45035248715223        0.24845114154566
C           49.57106409705661        1.23101556938107        0.22144673227877
C           50.20294249172422        0.00871504063502       -0.06810974946272
C           49.53860626129966       -1.20140652681894       -0.33502466877743
C           50.19918500431972       -2.42400297498653       -0.68015824943131
C           49.23238859508216       -3.36118071992356       -0.85003022800114
C           47.97364069524280       -2.71790953106257       -0.59963048412450
N           48.19260616270164       -1.39965148325741       -0.29871714583185
C           46.72703748281540       -3.34324667126736       -0.67346461693454
C           46.70750716829205       -4.79704793349679       -0.96563255792995
C           46.07537178611621       -5.28133169169868       -2.11324147781023
C           46.05775027034448       -6.63665421497407       -2.38968438161459
C           46.67113171897727       -7.53841311336875       -1.51498512350496
C           46.65307160030790       -8.93398633532979       -1.79504953273213
N           46.63933474051484      -10.06234294081844       -2.02059360066345
C           47.30250926000424       -7.05933713431605       -0.36328037668379
C           47.32072399661797       -5.70221218899330       -0.09617082514878
C           45.49712005595696       -2.70607965868948       -0.49040113227442
C           44.21633888196745       -3.35969801035570       -0.50442370902432
C           43.27891988903750       -2.40456301978861       -0.28670914496547
C           43.97810492434886       -1.16194069394970       -0.12561322631556
N           45.32197493723941       -1.37391919756564       -0.24972734951199
H           42.28408335411221        0.06703900172888        0.14743200518639
H           42.26501975426330        2.65510526201105        0.52394378419862
H           44.16660038298434        4.52856640820472        0.82683814899177
H           45.85547547676764        4.68927005684849        2.87777579305130
H           45.88545020280208        7.11249532443360        3.34668297787491
H           47.85816147729864        7.80760662191107       -0.40092780077302
H           47.81594820124394        5.38410887323190       -0.86842443479443
H           49.47701047140040        4.43229695492213        0.99973727516834
H           51.33878536014429        2.54488233064473        0.57467108986106
H           51.26611983893964       -2.53876008195970       -0.78550587060800
H           49.35633253706683       -4.39350149360185       -1.13434951014315
H           45.60958162712257       -4.58413161589512       -2.80052239212326
H           45.57043206132891       -7.00416816200401       -3.28517412133237
H           47.77594239229255       -7.75569408431777        0.31892488238338
H           47.80078272925021       -5.33558017511934        0.80415879972142
H           44.06195135429671       -4.41680399338944       -0.64935899254418
H           42.20802966946351       -2.51876723633035       -0.22775614088868
Cu          94.90729610055843        0.00761729810093        0.03440312691693
C           98.31304907303728       -0.02010543002740        0.10503576190571
C           97.67329846947749       -1.21976211091935        0.37737812396240
C           98.34379527424525       -2.46091407762718        0.64015325383295
C           97.38155506406515       -3.39225284667675        0.85242552100366
C           96.11353110392244       -2.72460888159446        0.73356226816735
N           96.32168092746127       -1.40838169391031        0.43781395351827
C           94.86599773281984       -3.33683111665728        0.87624505690318
C           94.84660695737641       -4.77660234865551        1.23216331833507
C           95.39761413496518       -5.21688740634762        2.43774902991191
C           95.37796807498135       -6.55883723218928        2.77317600977876
C           94.80863886869355       -7.49108314628770        1.90067276838955
C           94.78949876610791       -8.87306906016159        2.24145809965284
N           94.77282895637035       -9.99063928029658        2.51513128153087
C           94.25841698752295       -7.05600033115870        0.69128064750622
C           94.27643541421179       -5.71178446013031        0.36529188334867
C           93.63501126109395       -2.69882584217491        0.70981379689372
C           92.35566621141263       -3.31387170957077        0.92428056844056
C           91.41339486619216       -2.36921752469226        0.67685931351471
N           93.45203997869747       -1.39066802076693        0.34748735437406
C           92.10913832564071       -1.17036138555545        0.31702000900973
C           91.47777755403915        0.04044803989043       -0.01687522262584
C           92.14173834402602        1.23661308193163       -0.33972933975781
C           91.48034279002830        2.44449223065884       -0.73215740742151
C           92.44768930459861        3.36802347791034       -0.96214526555051
C           93.70794093255269        2.73198635737128       -0.70056499770651
N           93.48906862840738        1.43112753540845       -0.33189592253561
C           94.95540114280776        3.34692504800882       -0.82750291752050
C           94.97620974352469        4.78180066424261       -1.20201492437804
C           95.58933173204450        5.19502171256734       -2.38713982368648
C           95.60749013956453        6.53173654959742       -2.74270729828373
C           95.01386437098343        7.48617493422268       -1.91133454181533
C           95.03142080653818        8.86261909795006       -2.27383651902697
N           95.04442460491764        9.97573632870299       -2.56544125295974
C           94.40234781400579        7.07847295300462       -0.72203430537327
C           94.38344813054543        5.73935517945699       -0.37565506186988
C           96.18573725231604        2.71561088255787       -0.62825934397189
C           97.46820259663093        3.36274971839890       -0.69491516205702
C           98.40537709945704        2.41805211581382       -0.43493906617734
C           97.70459734111706        1.18877486606966       -0.19644471698278
N           96.35996996127017        1.39823445982643       -0.31646828590009
H           99.39784614431336       -0.02861003133136        0.12867269079711
H           99.41446562544262       -2.59102468166825        0.64735404848172
H           97.51159627298159       -4.44226312363781        1.05950315464602
H           95.82908798932982       -4.49553479508020        3.12253857170966
H           95.80183870323819       -6.89216969550812        3.71324698570047
H           93.81937017046410       -7.77622377980111        0.01088229198149
H           93.85899185335656       -5.37927677589995       -0.57845448427446
H           92.20204027108146       -4.33318711051936        1.23949626978884
H           90.34110151926396       -2.46429325926099        0.73739435827374
H           90.41231153110031        2.55855311240640       -0.82633599725874
H           92.32312632207407        4.38598701645179       -1.29400814277180
H           96.03990639295586        4.45654205510308       -3.04069820133319
H           96.07977554301061        6.84371075955780       -3.66689192793120
H           93.94470398793871        7.81596193657035       -0.07310014810872
H           93.91875867454156        5.42858148260474        0.55328063389411
H           97.62386251174389        4.40948033299659       -0.90094368390953
H           99.47724305085168        2.53148294444083       -0.39528368424626
C           55.40535342335043       -0.00224828475038       -0.09772271144065
C           54.17707074313582       -0.00661606766852       -0.10106984837428
C           52.83239828889460       -0.00727560527350       -0.09677348655874
C           51.60862623457050       -0.00293736470356       -0.09021456369697
C           56.74988969151810        0.00114313038947       -0.09400274054152
C           57.97387257983326        0.00835095276985       -0.08701881795025
C           71.45335285578675        0.02069053611735        0.02870479822830
C           70.22484635303923        0.01924980499648        0.03088020283246
C           68.88058170132844        0.01811967255454        0.02846314725713
C           67.65647461252699        0.01690354327950        0.02474395986953
C           72.79761355625800        0.02316195658353        0.02466255505207
C           74.02169546767298        0.02582814461052        0.01875156339145
C           87.50233355523552        0.06329317116786       -0.03179364314697
C           86.27433522249819        0.06255302543629       -0.03659625427961
C           84.92920836191138        0.06340302338535       -0.03311763832353
C           83.70552296355889        0.06112891109161       -0.02780694199820
C           88.84763967799385        0.05929283884286       -0.03062427522386
C           90.07118945400468        0.05443922962225       -0.02888526889193
Cu          62.81524061038083        0.01387940050052       -0.03136299795973
C           59.37904744153552        0.01193744336554       -0.07381692656079
C           60.03403939233552       -1.15988786484641       -0.49412493286901
C           59.36269429944004       -2.36204530871203       -0.88708692427151
C           60.32358225777978       -3.25400985332978       -1.23859177534530
C           61.58866110994146       -2.59731861044587       -1.07002034670947
N           61.37961437427308       -1.32603119443076       -0.60607543247220
C           62.83280472824529       -3.17801225985885       -1.32617364799421
C           62.84070573857100       -4.55127201186972       -1.88656324587439
C           62.25334644986693       -4.81321163567707       -3.12648384336844
C           62.26356212711394       -6.09139497951687       -3.65530071146753
C           62.85968562676634       -7.13838920726661       -2.94612335361277
C           62.87020121772886       -8.45553961194423       -3.48589972886098
N           62.88159236442795       -9.51975447518274       -3.92344772952269
C           63.44540270527939       -6.88237458102914       -1.70275168473589
C           63.43677573038549       -5.60047632870594       -1.18301886310399
C           64.07048392277662       -2.57184685318827       -1.09920693419513
C           65.34238923250805       -3.14858822339419       -1.43036109527367
C           66.29347831102368       -2.25546775584774       -1.05584304940733
N           64.26573361241724       -1.33518313329899       -0.54454220525037
C           65.60927442324856       -1.12574651082585       -0.50291590536431
C           66.25152470864745        0.01476805689155        0.01264843296852
C           65.59546170109923        1.15381096890052        0.51374390318968
C           66.26441867483491        2.28320016009282        1.08552429851007
C           65.30350759649417        3.17631219350575        1.43424218956741
C           64.04101526703387        2.60011759369785        1.06782474089250
N           64.25119598782712        1.36301458164850        0.51963747261870
C           62.79774967607411        3.20808917944439        1.25732380392358
C           62.79122207949737        4.58465806678075        1.80928957127548
C           62.16328734115257        4.85777668948981        3.02678706791074
C           62.15813475909543        6.14024918718334        3.54527646191817
C           62.77988497720813        7.18050513204408        2.84827345453635
C           62.77445659669314        8.50208605481316        3.37721165505622
N           62.77005101687048        9.57022726045847        3.80512617170735
C           63.40761378375314        6.91310033707549        1.62799327158488
C           63.41360219789231        5.62713306180978        1.11846747465335
C           61.56083640994649        2.62680372932447        0.96863022243543
C           60.29144207070843        3.28361414473593        1.10085374004596
C           59.34028886904919        2.38918328033147        0.72955490381680
C           60.02207123539105        1.18584901505641        0.35898597056876
N           61.36438032397265        1.35356828460862        0.50445724946531
H           58.29330322559413       -2.49962341372076       -0.88361798335190
H           60.19108575985881       -4.27164761868976       -1.56845573826106
H           61.80060771685672       -4.00151613204218       -3.68471808429521
H           61.81134265531387       -6.28552067291244       -4.62080720129539
H           63.90477357189265       -7.69240701250244       -1.14843405127076
H           63.88194208396684       -5.40788950916114       -0.21340196767023
H           65.48597885996627       -4.10673872760225       -1.90285365076480
H           67.36412174022715       -2.34199175374695       -1.14948387739457
H           67.33212069796765        2.36913001329467        1.20876178254182
H           65.43436399690317        4.13394283127700        1.91144833257668
H           61.69041214484170        4.05157439754992        3.57620280510397
H           61.67379695846682        6.34303772872019        4.49330963814771
H           63.88777080781832        7.71757006005581        1.08332502533401
H           63.89101920369305        5.42608512854515        0.16604983314262
H           60.14976991838923        4.30289329787854        1.42173456419707
H           58.27127182047696        2.52612489029624        0.69762583250890
Cu          78.86319559150600        0.04488539347187       -0.00807451615493
C           75.42674073840669        0.03089470062331        0.01136047198683
C           76.07799355211161       -1.13630815900613       -0.42726118661859
C           75.40356141137217       -2.33770839432835       -0.81708599620705
C           76.36115862886170       -3.22591878072221       -1.18661487653472
C           77.62726836540403       -2.56770615348710       -1.03194417876943
N           77.42219509373122       -1.29898787177119       -0.55933256323890
C           78.86888426170701       -3.14628430833646       -1.30470861243814
C           78.87017867517440       -4.51859623095686       -1.86782882996851
C           78.26946283022774       -4.77724836980765       -3.10208408905381
C           78.26999212404347       -6.05485481394185       -3.63237919843771
C           78.86978832924230       -7.10460993450476       -2.93037229397777
C           78.86902910159266       -8.42146587977699       -3.47104577250538
N           78.86753133202079       -9.48612236543142       -3.90777343465353
C           79.47015958190890       -6.85159308293197       -1.69340280826859
C           79.47103719531512       -5.57023007279141       -1.17214112978961
C           80.10864671541022       -2.53928409627716       -1.09176125379796
C           81.37731244698897       -3.11593010579077       -1.43576074207250
C           82.33178037302935       -2.22083432510747       -1.07513341904804
N           80.30907901469016       -1.30094666972095       -0.54294668141799
C           81.65290016868497       -1.08938797152775       -0.51878530286420
C           82.29950719325299        0.05665961353161       -0.02238797110722
C           81.64905091270262        1.19851049376757        0.47831234542970
C           82.32455017948566        2.33480322051357        1.02877830684235
C           81.36697280349888        3.22471588346895        1.39396992045021
C           80.09961180263193        2.63977246502650        1.05910318902563
N           80.30401396930966        1.40155790184368        0.51163973244477
C           78.85761831992046        3.24033956949323        1.27833445992433
C           78.85547722995022        4.61743021721826        1.82910063477342
C           78.25637451126620        4.88754067047458        3.06170936324052
C           78.25435812402856        6.17074938814260        3.57835218421038
C           78.85045550743605        7.21468398833447        2.86454067295015
C           78.84733072858523        8.53702098315263        3.39152838485755
N           78.84600472732890        9.60587625658475        3.81765414281845
C           79.44924892717276        6.95027887085524        1.62919363222511
C           79.45224782241866        5.66356227208220        1.12142622299208
C           77.61766116027370        2.65137139557361        1.02038688881411
C           76.34798914817277        3.30055343270854        1.18412899680961
C           75.39364341339740        2.40228744752451        0.83094698744493
C           76.07349435089324        1.20415938614788        0.44044337178704
N           77.41767202644428        1.37827442164743        0.55726658112932
H           74.33460506898926       -2.47755352440795       -0.79916956927255
H           76.22591502787340       -4.24206392461443       -1.51993034365909
H           77.81320551231653       -3.96351411764881       -3.65445733920305
H           77.80699397180540       -6.24653939170165       -4.59329276213710
H           79.93304750060138       -7.66360630954533       -1.14494839852902
H           79.92712437746255       -5.38023837265639       -0.20709888262129
H           81.51626274588043       -4.07567026305820       -1.90643227626707
H           83.40135897036429       -2.30630785423367       -1.18120572341351
H           83.39425659706708        2.42687362358894        1.12784201831345
H           81.50309379471496        4.18566593197571        1.86302445107561
H           77.80363144361552        4.07858436335011        3.62393557984771
H           77.79225093376215        6.37140331037755        4.53785228431018
H           79.90924402067344        7.75757056082901        1.07137162526930
H           79.90691694892058        5.46469130698327        0.15749696824656
H           76.20780305561212        4.31786297522643        1.51177654432352
H           74.32346626960005        2.53348374495058        0.82374049572986
