189
 energy: -323.437439976416 gnorm: 0.000233183598 xtb: 6.5.1 (b24c23e)
Fe          22.76565604044518        0.25712516162928        0.14197666263692
C           19.37945460050968        0.14650505439116        0.10903423474110
C           20.06311632277744       -1.04762333152211        0.20927488658920
C           19.42113540817289       -2.32186442218372        0.32997596680724
C           20.40150184680584       -3.25498596697220        0.29457213428804
C           21.64142016998785       -2.54951564852432        0.13995901169487
N           21.42292502467928       -1.19769078987550        0.13187810198878
C           22.87494698581349       -3.16833811251686       -0.02744165895407
C           22.92745458447070       -4.64679793842448       -0.11148026914732
C           22.29270393677668       -5.31846417223651       -1.08617987598080
C           22.32307881349987       -6.81893673830646       -1.19559359908979
N           23.34172784533522       -7.39860919877485       -0.31929588350032
C           23.84617409958883       -6.70972147477796        0.74597422612740
C           23.70188686763935       -5.37687402067236        0.87802092589409
C           24.06478267543060       -2.45817900940317       -0.11936017838864
C           25.34367892245016       -3.06679263728174       -0.33627623502728
C           26.26468520918486       -2.07538013137784       -0.27331781224681
N           24.20297850194465       -1.09921923775061        0.02861276798897
C           25.54591770384503       -0.86412154919543       -0.02873886713209
C           26.17151506477368        0.36728464758547        0.19084364613218
C           25.46198126783667        1.55648336470327        0.38542896683060
C           26.09395817649385        2.81302734420948        0.64103847027048
C           25.10976977070667        3.74351121308084        0.66859696279044
C           23.87927933490242        3.05214644940071        0.42161643524218
N           24.10886419611872        1.70425038028257        0.28746212648922
C           22.64828508729520        3.68287971984066        0.29739534316600
C           22.60264134320007        5.16204083764972        0.37395704333512
C           21.90558416266434        5.79499333804364        1.33185328685451
C           21.83553184518257        7.29460782383796        1.43422291612580
N           22.82526798885554        7.93714404552085        0.56868124745660
C           23.39721566995612        7.27708495404047       -0.48036905229969
C           23.34704606672658        5.93659623892683       -0.60457909267014
C           21.46140542341790        2.98430951289186        0.10827894764187
C           20.18132524469301        3.60685947429834       -0.07308143498195
C           19.26444973430066        2.61178446925463       -0.12032678605143
C           19.98562221635382        1.38255037149089        0.01843932566278
N           21.33110579187959        1.62113403383316        0.11976032422962
H           18.29576136284961        0.11118077277399        0.09928172804289
H           18.35643682630566       -2.46395111839139        0.42852246576621
H           20.30650052612127       -4.32613379653884        0.37078431709932
H           21.71484872303043       -4.80664607789255       -1.84681407147872
H           22.54811417228269       -7.11940409387812       -2.22879310495948
H           21.33155137826366       -7.23909430414221       -0.94532803880319
H           23.31566720855746       -8.40464631517035       -0.24913248971203
H           24.42969022232747       -7.30662158560214        1.43952578851228
H           24.14453341063844       -4.84430188536595        1.70760568175058
H           25.50560810544526       -4.11754424240254       -0.51422147473732
H           27.33547134781798       -2.14236199283651       -0.38030767946834
H           27.15476731594725        2.94941088856770        0.77757781002077
H           25.19850793047386        4.80380868400777        0.84151797105939
H           21.34713395903599        5.24969069329525        2.08367581973305
H           22.02596531243566        7.61335180812139        2.46902158220686
H           20.82198187459206        7.64735502687522        1.16878159165049
H           22.73193255733526        8.93853062040845        0.49031952971877
H           23.95197031927730        7.90795259159715       -1.16743584667522
H           23.84183727353339        5.43010234243384       -1.42091805336063
H           20.01831184275897        4.66917824577600       -0.15729104684977
H           18.19476105652773        2.68380794158169       -0.23890307435198
Fe          59.81265905020048        0.16052387915880        0.14062069411056
C           63.19478189507973        0.30737897227046        0.17079050010925
C           62.49553718991561        1.44700669091856        0.51192433791861
C           63.11727069963809        2.67353240290696        0.91144723295891
C           62.12572781161791        3.58605466970451        1.04466338513084
C           60.89949780066701        2.91918022877652        0.71208127909595
N           61.13592361860656        1.59898407023028        0.43529375873946
C           59.66461792827879        3.55125087420935        0.62088645991982
C           59.59192600635640        5.01631743411483        0.82803350888131
C           60.26194735291932        5.87394349009196        0.04074423939858
C           60.21156943974196        7.36569836764885        0.23171261020062
N           59.14257352992967        7.75159539203099        1.15363190427236
C           58.59795426066593        6.85974004289627        2.03221876116935
C           58.75766470460552        5.52852125175068        1.90214927997416
C           58.48981567252324        2.86377088412846        0.34409735726758
C           57.21178886584809        3.49205312901174        0.18674362451378
C           56.30207952013019        2.49844088777378        0.04230458665831
N           58.36447488692350        1.49951537119981        0.24340796691716
C           57.02686440924703        1.26769404416516        0.10313662363840
C           56.41123653342851        0.01172225676734        0.12302100905062
C           57.13270655967776       -1.18570200180478        0.14164597134664
C           56.51680923513983       -2.47490283225407        0.18776600242329
C           57.51095508195897       -3.38491515105066        0.04813615141475
C           58.73166840253835       -2.64719357959127       -0.08935132346087
N           58.48695570321306       -1.29962250724067        0.01443132016117
C           59.96671647505110       -3.22868189779904       -0.34666506121980
C           60.02767293357236       -4.69440892682998       -0.55321777005217
C           60.75648318049073       -5.48858237669272        0.24837537648520
C           60.84445877678017       -6.97878867362005        0.05961372921502
N           59.83904364336395       -7.45887666732076       -0.88916978098098
C           59.23171707276884       -6.61885352283912       -1.77732556119257
C           59.26451424269676       -5.27882235020168       -1.64300139280547
C           61.14352430132557       -2.49153286855394       -0.41482197105688
C           62.42883220789552       -3.04920439334719       -0.72503322613089
C           63.33529469165970       -2.05500113562075       -0.57208401595305
C           62.60272047038754       -0.88767278115871       -0.18329496313075
N           61.26005056389354       -1.15654432259948       -0.13252898561313
H           64.27801832356910        0.35404804370708        0.18105619530080
H           64.17729448628465        2.80080555179649        1.06524681323668
H           62.20491037319206        4.61875547116867        1.34384894255288
H           60.88443956070447        5.52895775103713       -0.77651690963553
H           60.03138659038682        7.86530104084598       -0.73078646787504
H           61.18275991346604        7.73406720437666        0.61035528322697
H           59.14960200080778        8.72303985400141        1.42560402724323
H           57.97146081899187        7.30160563408145        2.80036914627643
H           58.28364445777778        4.83759489064057        2.58459846072251
H           57.04263771182209        4.55667068655316        0.18734432895549
H           55.23497943550755        2.57632923747090       -0.09083135629648
H           55.45865629744824       -2.64468130749780        0.30682546333075
H           57.43505746100743       -4.46020417632324        0.03906165418256
H           61.32950219063306       -5.08900053383720        1.07689546229064
H           60.68483403766676       -7.49261558584708        1.01836329953180
H           61.85425001094635       -7.25871349830436       -0.29273929907111
H           59.94146948775905       -8.42487172813561       -1.16119100780109
H           58.66515703615994       -7.11480082685696       -2.55888772919893
H           58.74248030749339       -4.63304799736863       -2.33455081737033
H           62.60254488975026       -4.07030798194959       -1.02402843589525
H           64.40503347704698       -2.08993695112764       -0.70605431112483
C           27.57434502788421        0.40977180793944        0.21657194881925
C           28.79852420644577        0.44077495291496        0.24294902802491
C           30.13994217604790        0.47303856623712        0.27487333808722
C           31.37040504137265        0.49855770498797        0.30682443489972
C           32.70675030504297        0.52865175741218        0.34621483920083
C           33.93704237535764        0.55603662500516        0.38652534772526
C           35.27744051372729        0.58815881499535        0.43839774364595
C           36.50104130836881        0.62119383495718        0.49149808646342
C           46.09068346763953        0.28320087209950        0.40841763205560
C           47.30951857456699        0.17523330377557        0.34811467731544
C           48.64693207581882        0.07898433283701        0.29036691416306
C           49.87532347428081        0.01070391968575        0.24444695295808
C           51.21130841126082       -0.03926877335426        0.20210896567349
C           52.44163749009504       -0.06346587735224        0.16991353356613
C           53.78388465838714       -0.06142532229518        0.14497229954698
C           55.00834599196771       -0.04151038742143        0.13006481255682
Fe          41.30582206912187        0.70064525085795        0.63626115731742
C           37.90140313149205        0.66189727066690        0.55162218123958
C           38.58095475462409        1.58523326529023       -0.25401835358131
C           37.92502007309541        2.56709252668495       -1.05837556558275
C           38.89647911120830        3.22233318599856       -1.74041901280727
C           40.14026225577543        2.61205083813843       -1.37554285526522
N           39.93178222494846        1.64491285102960       -0.42122845838978
C           41.35504235504758        2.87778618897506       -1.99374052957728
C           41.39796960718459        3.85188003927448       -3.10776594565723
C           40.67723631198689        3.67463879747866       -4.22781663576071
C           40.74561182687287        4.61796797078178       -5.39740432963069
N           41.41870833839824        5.86676181197029       -5.03836085269573
C           42.24567249640697        5.94807598031039       -3.95486704663640
C           42.25802866188359        5.01628569155222       -2.98237519850448
C           42.53731648183452        2.23460622808040       -1.64070826671660
C           43.76809098615698        2.36624796403804       -2.36100400583613
C           44.69441713540637        1.63915065982553       -1.68938667194449
N           42.70440465185336        1.40740890388434       -0.55983576293402
C           44.02941307572853        1.07798589205507       -0.55535835320229
C           44.69666846569282        0.41930855227841        0.48262601669622
C           44.03608209305177       -0.05247407369584        1.62440802454443
C           44.71227263667227       -0.56954281318993        2.77172690099867
C           43.75172888363056       -0.96975424335504        3.64097003370034
C           42.49145920428350       -0.72993856764422        3.00315340037421
N           42.68476360840130       -0.11604984546266        1.78853524922876
C           41.26803494730659       -1.17157638595163        3.49115853846052
C           41.23082975797106       -1.93945952580587        4.75633064457737
C           41.90104425359551       -3.09422187708961        4.90555749117177
C           41.88013507563486       -3.88886846309130        6.18309621733446
N           40.82976756216618       -3.42029895950963        7.08802641148649
C           40.28236156623650       -2.17568445863222        6.96544055335493
C           40.41943726089691       -1.43254393049313        5.85043967848196
C           40.06786429900573       -0.95664945287566        2.82055712671806
C           38.81724352874323       -1.53740281338045        3.20776105966818
C           37.88198209213245       -1.06134247664575        2.34987854924287
C           38.56150568248275       -0.17974074181253        1.45288283813411
N           39.90088383392459       -0.15934915550765        1.71733259561803
H           36.85949779481056        2.73070020025016       -1.07997098591317
H           38.78873990563998        4.04213721605782       -2.43184775157734
H           40.05934037746421        2.79629115748982       -4.37344293444186
H           41.27077081481206        4.13846547150824       -6.24404731922412
H           39.73179221203152        4.86218138948645       -5.74509650171990
H           41.61614979904646        6.47801783231742       -5.81638932513547
H           42.83702350416389        6.85648524132803       -3.90140420041708
H           42.87275812750284        5.13313170104427       -2.10134768814060
H           43.89497572439180        2.93474263997375       -3.26822391931152
H           45.73821043897232        1.49888184119820       -1.92032401397032
H           45.78350909612477       -0.60341429838931        2.88961665202251
H           43.87819376203858       -1.39112886182542        4.62491712324957
H           42.49870466137706       -3.51378738082944        4.10486067812898
H           42.86264020373518       -3.82560903304739        6.68590546345426
H           41.69759308230525       -4.95086163670601        5.96606625078626
H           40.85846092484210       -3.82360639091377        8.01228638954901
H           39.67286599821614       -1.86117663487858        7.80650235859811
H           39.94154110549508       -0.46787129263383        5.75667449208663
H           38.68341730180095       -2.22640119073852        4.02593711984967
H           36.82355550840285       -1.26538557511644        2.32540875125566
